
=================
  PFLOTRAN v4.0
=================


 *DXYZ 
  dx  
  1.0000E+00
  dy  
  1.0000E+00
  dz  
  1.0000E+00  1.0000E+00  1.0000E+00  1.0000E+00  1.0000E+00  1.0000E+00  1.0000E+00  1.0000E+00  1.0000E+00  1.0000E+00
  1.0000E+00  1.0000E+00  1.0000E+00  1.0000E+00  1.0000E+00  1.0000E+00  1.0000E+00  1.0000E+00  1.0000E+00  1.0000E+00
  1.0000E+00  1.0000E+00  1.0000E+00  1.0000E+00  1.0000E+00  1.0000E+00  1.0000E+00  1.0000E+00  1.0000E+00  1.0000E+00
  1.0000E+00  1.0000E+00  1.0000E+00  1.0000E+00  1.0000E+00  1.0000E+00  1.0000E+00  1.0000E+00  1.0000E+00  1.0000E+00
  1.0000E+00  1.0000E+00  1.0000E+00  1.0000E+00  1.0000E+00  1.0000E+00  1.0000E+00  1.0000E+00  1.0000E+00  1.0000E+00
  1.0000E+00  1.0000E+00  1.0000E+00  1.0000E+00  1.0000E+00  1.0000E+00  1.0000E+00  1.0000E+00  1.0000E+00  1.0000E+00
  1.0000E+00  1.0000E+00  1.0000E+00  1.0000E+00  1.0000E+00  1.0000E+00  1.0000E+00  1.0000E+00  1.0000E+00  1.0000E+00
  1.0000E+00  1.0000E+00  1.0000E+00  1.0000E+00  1.0000E+00  1.0000E+00  1.0000E+00  1.0000E+00  1.0000E+00  1.0000E+00
  1.0000E+00  1.0000E+00  1.0000E+00  1.0000E+00  1.0000E+00  1.0000E+00  1.0000E+00  1.0000E+00  1.0000E+00  1.0000E+00
  1.0000E+00  1.0000E+00  1.0000E+00  1.0000E+00  1.0000E+00  1.0000E+00  1.0000E+00  1.0000E+00  1.0000E+00  1.0000E+00
  1.0000E+00  1.0000E+00  1.0000E+00  1.0000E+00  1.0000E+00  1.0000E+00  1.0000E+00  1.0000E+00  1.0000E+00  1.0000E+00
  1.0000E+00  1.0000E+00  1.0000E+00  1.0000E+00  1.0000E+00  1.0000E+00  1.0000E+00  1.0000E+00  1.0000E+00  1.0000E+00
  1.0000E+00  1.0000E+00  1.0000E+00  1.0000E+00  1.0000E+00  1.0000E+00  1.0000E+00  1.0000E+00  1.0000E+00  1.0000E+00
  1.0000E+00  1.0000E+00  1.0000E+00  1.0000E+00  1.0000E+00  1.0000E+00  1.0000E+00  1.0000E+00  1.0000E+00  1.0000E+00
  1.0000E+00  1.0000E+00  1.0000E+00  1.0000E+00  1.0000E+00  1.0000E+00  1.0000E+00  1.0000E+00  1.0000E+00  1.0000E+00
  1.0000E+00  1.0000E+00  1.0000E+00  1.0000E+00  1.0000E+00  1.0000E+00  1.0000E+00  1.0000E+00  1.0000E+00  1.0000E+00
  1.0000E+00  1.0000E+00  1.0000E+00  1.0000E+00  1.0000E+00  1.0000E+00  1.0000E+00  1.0000E+00  1.0000E+00  1.0000E+00
  1.0000E+00  1.0000E+00  1.0000E+00  1.0000E+00  1.0000E+00  1.0000E+00  1.0000E+00  1.0000E+00  1.0000E+00  1.0000E+00
  1.0000E+00  1.0000E+00  1.0000E+00  1.0000E+00  1.0000E+00  1.0000E+00  1.0000E+00  1.0000E+00  1.0000E+00  1.0000E+00
  1.0000E+00  1.0000E+00  1.0000E+00  1.0000E+00  1.0000E+00  1.0000E+00  1.0000E+00  1.0000E+00  1.0000E+00  1.0000E+00
  1.0000E+00  1.0000E+00  1.0000E+00  1.0000E+00  1.0000E+00  1.0000E+00  1.0000E+00  1.0000E+00  1.0000E+00  1.0000E+00
  1.0000E+00  1.0000E+00  1.0000E+00  1.0000E+00  1.0000E+00  1.0000E+00  1.0000E+00  1.0000E+00  1.0000E+00  1.0000E+00
  1.0000E+00  1.0000E+00  1.0000E+00  1.0000E+00  1.0000E+00  1.0000E+00  1.0000E+00  1.0000E+00  1.0000E+00  1.0000E+00
  1.0000E+00  1.0000E+00  1.0000E+00  1.0000E+00  1.0000E+00  1.0000E+00  1.0000E+00  1.0000E+00  1.0000E+00  1.0000E+00
  1.0000E+00  1.0000E+00  1.0000E+00  1.0000E+00  1.0000E+00  1.0000E+00  1.0000E+00  1.0000E+00  1.0000E+00  1.0000E+00
  1.0000E+00  1.0000E+00  1.0000E+00  1.0000E+00  1.0000E+00  1.0000E+00  1.0000E+00  1.0000E+00  1.0000E+00  1.0000E+00
  1.0000E+00  1.0000E+00  1.0000E+00  1.0000E+00  1.0000E+00  1.0000E+00  1.0000E+00  1.0000E+00  1.0000E+00  1.0000E+00
  1.0000E+00  1.0000E+00  1.0000E+00  1.0000E+00  1.0000E+00  1.0000E+00  1.0000E+00  1.0000E+00  1.0000E+00  1.0000E+00
  1.0000E+00  1.0000E+00  1.0000E+00  1.0000E+00  1.0000E+00  1.0000E+00  1.0000E+00  1.0000E+00  1.0000E+00  1.0000E+00
  1.0000E+00  1.0000E+00  1.0000E+00  1.0000E+00  1.0000E+00  1.0000E+00  1.0000E+00  1.0000E+00  1.0000E+00  1.0000E+00
  1.0000E+00  1.0000E+00  1.0000E+00  1.0000E+00  1.0000E+00  1.0000E+00  1.0000E+00  1.0000E+00  1.0000E+00  1.0000E+00
  1.0000E+00  1.0000E+00  1.0000E+00  1.0000E+00  1.0000E+00  1.0000E+00  1.0000E+00  1.0000E+00  1.0000E+00  1.0000E+00
  1.0000E+00  1.0000E+00  1.0000E+00  1.0000E+00  1.0000E+00  1.0000E+00  1.0000E+00  1.0000E+00  1.0000E+00  1.0000E+00
  1.0000E+00  1.0000E+00  1.0000E+00  1.0000E+00  1.0000E+00  1.0000E+00  1.0000E+00  1.0000E+00  1.0000E+00  1.0000E+00
  1.0000E+00  1.0000E+00  1.0000E+00  1.0000E+00  1.0000E+00  1.0000E+00  1.0000E+00  1.0000E+00  1.0000E+00  1.0000E+00
  1.0000E+00  1.0000E+00  1.0000E+00  1.0000E+00  1.0000E+00  1.0000E+00  1.0000E+00  1.0000E+00  1.0000E+00  1.0000E+00
  1.0000E+00  1.0000E+00  1.0000E+00  1.0000E+00  1.0000E+00  1.0000E+00  1.0000E+00  1.0000E+00  1.0000E+00  1.0000E+00
  1.0000E+00  1.0000E+00  1.0000E+00  1.0000E+00  1.0000E+00  1.0000E+00  1.0000E+00  1.0000E+00  1.0000E+00  1.0000E+00
  1.0000E+00  1.0000E+00  1.0000E+00  1.0000E+00  1.0000E+00  1.0000E+00  1.0000E+00  1.0000E+00  1.0000E+00  1.0000E+00
  1.0000E+00  1.0000E+00  1.0000E+00  1.0000E+00  1.0000E+00  1.0000E+00  1.0000E+00  1.0000E+00  1.0000E+00  1.0000E+00
  1.0000E+00  1.0000E+00  1.0000E+00  1.0000E+00  1.0000E+00  1.0000E+00  1.0000E+00  1.0000E+00  1.0000E+00  1.0000E+00
  1.0000E+00  1.0000E+00  1.0000E+00  1.0000E+00  1.0000E+00  1.0000E+00  1.0000E+00  1.0000E+00  1.0000E+00  1.0000E+00
  1.0000E+00  1.0000E+00  1.0000E+00  1.0000E+00  1.0000E+00  1.0000E+00  1.0000E+00  1.0000E+00  1.0000E+00  1.0000E+00
  1.0000E+00  1.0000E+00  1.0000E+00  1.0000E+00  1.0000E+00  1.0000E+00  1.0000E+00  1.0000E+00  1.0000E+00  1.0000E+00
  1.0000E+00  1.0000E+00  1.0000E+00  1.0000E+00  1.0000E+00  1.0000E+00  1.0000E+00  1.0000E+00  1.0000E+00  1.0000E+00
  1.0000E+00  1.0000E+00  1.0000E+00  1.0000E+00  1.0000E+00  1.0000E+00  1.0000E+00  1.0000E+00  1.0000E+00  1.0000E+00
  1.0000E+00  1.0000E+00  1.0000E+00  1.0000E+00  1.0000E+00  1.0000E+00  1.0000E+00  1.0000E+00  1.0000E+00  1.0000E+00
  1.0000E+00  1.0000E+00  1.0000E+00  1.0000E+00  1.0000E+00  1.0000E+00  1.0000E+00  1.0000E+00  1.0000E+00  1.0000E+00
  1.0000E+00  1.0000E+00  1.0000E+00  1.0000E+00  1.0000E+00  1.0000E+00  1.0000E+00  1.0000E+00  1.0000E+00  1.0000E+00
  1.0000E+00  1.0000E+00  1.0000E+00  1.0000E+00  1.0000E+00  1.0000E+00  1.0000E+00  1.0000E+00  1.0000E+00  1.0000E+00
  1.0000E+00  1.0000E+00  1.0000E+00  1.0000E+00  1.0000E+00  1.0000E+00  1.0000E+00  1.0000E+00  1.0000E+00  1.0000E+00
  1.0000E+00  1.0000E+00  1.0000E+00  1.0000E+00  1.0000E+00  1.0000E+00  1.0000E+00  1.0000E+00  1.0000E+00  1.0000E+00
  1.0000E+00  1.0000E+00  1.0000E+00  1.0000E+00  1.0000E+00  1.0000E+00  1.0000E+00  1.0000E+00  1.0000E+00  1.0000E+00
  1.0000E+00  1.0000E+00  1.0000E+00  1.0000E+00  1.0000E+00  1.0000E+00  1.0000E+00  1.0000E+00  1.0000E+00  1.0000E+00
  1.0000E+00  1.0000E+00  1.0000E+00  1.0000E+00  1.0000E+00  1.0000E+00  1.0000E+00  1.0000E+00  1.0000E+00  1.0000E+00
  1.0000E+00  1.0000E+00  1.0000E+00  1.0000E+00  1.0000E+00  1.0000E+00  1.0000E+00  1.0000E+00  1.0000E+00  1.0000E+00
  1.0000E+00  1.0000E+00  1.0000E+00  1.0000E+00  1.0000E+00  1.0000E+00  1.0000E+00  1.0000E+00  1.0000E+00  1.0000E+00
  1.0000E+00  1.0000E+00  1.0000E+00  1.0000E+00  1.0000E+00  1.0000E+00  1.0000E+00  1.0000E+00  1.0000E+00  1.0000E+00
  1.0000E+00  1.0000E+00  1.0000E+00  1.0000E+00  1.0000E+00  1.0000E+00  1.0000E+00  1.0000E+00  1.0000E+00  1.0000E+00
  1.0000E+00  1.0000E+00  1.0000E+00  1.0000E+00  1.0000E+00  1.0000E+00  1.0000E+00  1.0000E+00  1.0000E+00  1.0000E+00
  1.0000E+00  1.0000E+00  1.0000E+00  1.0000E+00  1.0000E+00  1.0000E+00  1.0000E+00  1.0000E+00  1.0000E+00  1.0000E+00
  1.0000E+00  1.0000E+00  1.0000E+00  1.0000E+00  1.0000E+00  1.0000E+00  1.0000E+00  1.0000E+00  1.0000E+00  1.0000E+00
  1.0000E+00  1.0000E+00  1.0000E+00  1.0000E+00  1.0000E+00  1.0000E+00  1.0000E+00  1.0000E+00  1.0000E+00  1.0000E+00
  1.0000E+00  1.0000E+00  1.0000E+00  1.0000E+00  1.0000E+00  1.0000E+00  1.0000E+00  1.0000E+00  1.0000E+00  1.0000E+00
  1.0000E+00  1.0000E+00  1.0000E+00  1.0000E+00  1.0000E+00  1.0000E+00  1.0000E+00  1.0000E+00  1.0000E+00  1.0000E+00
  1.0000E+00  1.0000E+00  1.0000E+00  1.0000E+00  1.0000E+00  1.0000E+00  1.0000E+00  1.0000E+00  1.0000E+00  1.0000E+00
  1.0000E+00  1.0000E+00  1.0000E+00  1.0000E+00  1.0000E+00  1.0000E+00  1.0000E+00  1.0000E+00  1.0000E+00  1.0000E+00
  1.0000E+00  1.0000E+00  1.0000E+00  1.0000E+00  1.0000E+00  1.0000E+00  1.0000E+00  1.0000E+00  1.0000E+00  1.0000E+00
  1.0000E+00  1.0000E+00  1.0000E+00  1.0000E+00  1.0000E+00  1.0000E+00  1.0000E+00  1.0000E+00  1.0000E+00  1.0000E+00
  1.0000E+00  1.0000E+00  1.0000E+00  1.0000E+00  1.0000E+00  1.0000E+00  1.0000E+00  1.0000E+00  1.0000E+00  1.0000E+00
  1.0000E+00  1.0000E+00  1.0000E+00  1.0000E+00  1.0000E+00  1.0000E+00  1.0000E+00  1.0000E+00  1.0000E+00  1.0000E+00
  1.0000E+00  1.0000E+00  1.0000E+00  1.0000E+00  1.0000E+00  1.0000E+00  1.0000E+00  1.0000E+00  1.0000E+00  1.0000E+00
  1.0000E+00  1.0000E+00  1.0000E+00  1.0000E+00  1.0000E+00  1.0000E+00  1.0000E+00  1.0000E+00  1.0000E+00  1.0000E+00
  1.0000E+00  1.0000E+00  1.0000E+00  1.0000E+00  1.0000E+00  1.0000E+00  1.0000E+00  1.0000E+00  1.0000E+00  1.0000E+00
  1.0000E+00  1.0000E+00  1.0000E+00  1.0000E+00  1.0000E+00  1.0000E+00  1.0000E+00  1.0000E+00  1.0000E+00  1.0000E+00
  1.0000E+00  1.0000E+00  1.0000E+00  1.0000E+00  1.0000E+00  1.0000E+00  1.0000E+00  1.0000E+00  1.0000E+00  1.0000E+00
  1.0000E+00  1.0000E+00  1.0000E+00  1.0000E+00  1.0000E+00  1.0000E+00  1.0000E+00  1.0000E+00  1.0000E+00  1.0000E+00
  1.0000E+00  1.0000E+00  1.0000E+00  1.0000E+00  1.0000E+00  1.0000E+00  1.0000E+00  1.0000E+00  1.0000E+00  1.0000E+00
  1.0000E+00  1.0000E+00  1.0000E+00  1.0000E+00  1.0000E+00  1.0000E+00  1.0000E+00  1.0000E+00  1.0000E+00  1.0000E+00
  1.0000E+00  1.0000E+00  1.0000E+00  1.0000E+00  1.0000E+00  1.0000E+00  1.0000E+00  1.0000E+00  1.0000E+00  1.0000E+00
  1.0000E+00  1.0000E+00  1.0000E+00  1.0000E+00  1.0000E+00  1.0000E+00  1.0000E+00  1.0000E+00  1.0000E+00  1.0000E+00
  1.0000E+00  1.0000E+00  1.0000E+00  1.0000E+00  1.0000E+00  1.0000E+00  1.0000E+00  1.0000E+00  1.0000E+00  1.0000E+00
  1.0000E+00  1.0000E+00  1.0000E+00  1.0000E+00  1.0000E+00  1.0000E+00  1.0000E+00  1.0000E+00  1.0000E+00  1.0000E+00
  1.0000E+00  1.0000E+00  1.0000E+00  1.0000E+00  1.0000E+00  1.0000E+00  1.0000E+00  1.0000E+00  1.0000E+00  1.0000E+00
  1.0000E+00  1.0000E+00  1.0000E+00  1.0000E+00  1.0000E+00  1.0000E+00  1.0000E+00  1.0000E+00  1.0000E+00  1.0000E+00
  1.0000E+00  1.0000E+00  1.0000E+00  1.0000E+00  1.0000E+00  1.0000E+00  1.0000E+00  1.0000E+00  1.0000E+00  1.0000E+00
  1.0000E+00  1.0000E+00  1.0000E+00  1.0000E+00  1.0000E+00  1.0000E+00  1.0000E+00  1.0000E+00  1.0000E+00  1.0000E+00
  1.0000E+00  1.0000E+00  1.0000E+00  1.0000E+00  1.0000E+00  1.0000E+00  1.0000E+00  1.0000E+00  1.0000E+00  1.0000E+00
  1.0000E+00  1.0000E+00  1.0000E+00  1.0000E+00  1.0000E+00  1.0000E+00  1.0000E+00  1.0000E+00  1.0000E+00  1.0000E+00
  1.0000E+00  1.0000E+00  1.0000E+00  1.0000E+00  1.0000E+00  1.0000E+00  1.0000E+00  1.0000E+00  1.0000E+00  1.0000E+00
  1.0000E+00  1.0000E+00  1.0000E+00  1.0000E+00  1.0000E+00  1.0000E+00  1.0000E+00  1.0000E+00  1.0000E+00  1.0000E+00
  1.0000E+00  1.0000E+00  1.0000E+00  1.0000E+00  1.0000E+00  1.0000E+00  1.0000E+00  1.0000E+00  1.0000E+00  1.0000E+00
  1.0000E+00  1.0000E+00  1.0000E+00  1.0000E+00  1.0000E+00  1.0000E+00  1.0000E+00  1.0000E+00  1.0000E+00  1.0000E+00
  1.0000E+00  1.0000E+00  1.0000E+00  1.0000E+00  1.0000E+00  1.0000E+00  1.0000E+00  1.0000E+00  1.0000E+00  1.0000E+00
  1.0000E+00  1.0000E+00  1.0000E+00  1.0000E+00  1.0000E+00  1.0000E+00  1.0000E+00  1.0000E+00  1.0000E+00  1.0000E+00
  1.0000E+00  1.0000E+00  1.0000E+00  1.0000E+00  1.0000E+00  1.0000E+00  1.0000E+00  1.0000E+00  1.0000E+00  1.0000E+00
  1.0000E+00  1.0000E+00  1.0000E+00  1.0000E+00  1.0000E+00  1.0000E+00  1.0000E+00  1.0000E+00  1.0000E+00  1.0000E+00
  1.0000E+00  1.0000E+00  1.0000E+00  1.0000E+00  1.0000E+00  1.0000E+00  1.0000E+00  1.0000E+00  1.0000E+00  1.0000E+00
  1.0000E+00  1.0000E+00  1.0000E+00  1.0000E+00  1.0000E+00  1.0000E+00  1.0000E+00  1.0000E+00  1.0000E+00  1.0000E+00
  1.0000E+00  1.0000E+00  1.0000E+00  1.0000E+00  1.0000E+00  1.0000E+00  1.0000E+00  1.0000E+00  1.0000E+00  1.0000E+00

 *GRAV
  gravity    =  [m/s^2]     0.0000E+00  0.0000E+00 -9.8000E+00
 Extent of Gridded Domain
  X: 0.000000000000000E+000 - 1.00000000000000
  Y: 0.000000000000000E+000 - 1.00000000000000
  Z: 0.000000000000000E+000 - 1000.00000000000
 
 
=+=+=+=+=+=+=+=+=+=+=+=+=+=+=+=+=+=+=+=+=+=+=+=+=+=+=+=+=+=+=+=+=+=+=+=+=+=+=+=+

  Initial Condition

--------------------------------------------------------------------------------
          Flow Condition:   initial
                  Region:   all
--------------------------------------------------------------------------------

  Flow Condition: initial
    Synchronize time with update: no
    Time units: 
    Length units: 
      Datum:
        Dataset: Unnamed Ascii Dataset
          Type: dataset_ascii_type
          Transient: no
          Array Rank:  3

    Sub Condition: 
      Type: hydrostatic
      Gradient:
      Data:
        Dataset: Unnamed Ascii Dataset
          Type: dataset_ascii_type
          Transient: no
          Array Rank:  1

    Sub Condition: 
      Type: dirichlet
      Gradient:
      Data:
        Dataset: Unnamed Ascii Dataset
          Type: dataset_ascii_type
          Transient: no
          Array Rank:  1

    Sub Condition: 
      Type: dirichlet
      Gradient:
        Dataset: Unnamed Ascii Dataset
          Type: dataset_ascii_type
          Transient: no
          Array Rank:  3
      Data:
        Dataset: Unnamed Ascii Dataset
          Type: dataset_ascii_type
          Transient: no
          Array Rank:  1

--------------------------------------------------------------------------------
 
=+=+=+=+=+=+=+=+=+=+=+=+=+=+=+=+=+=+=+=+=+=+=+=+=+=+=+=+=+=+=+=+=+=+=+=+=+=+=+=+

  Boundary Condition

--------------------------------------------------------------------------------
          Flow Condition:   top
                  Region:   top
--------------------------------------------------------------------------------

  Flow Condition: top
    Synchronize time with update: no
    Time units: 
    Length units: 
      Datum:
        Dataset: Unnamed Ascii Dataset
          Type: dataset_ascii_type
          Transient: no
          Array Rank:  3

    Sub Condition: 
      Type: hydrostatic
      Gradient:
      Data:
        Dataset: Unnamed Ascii Dataset
          Type: dataset_ascii_type
          Is transient?: yes
          Number of times:    121
          Is cyclic?: no
          Buffer:
            Rank:  2
            Dims:    1 121
            Buffer Slice Size:   0
          Array Rank:  1

    Sub Condition: 
      Type: dirichlet
      Gradient:
      Data:
        Dataset: Unnamed Ascii Dataset
          Type: dataset_ascii_type
          Transient: no
          Array Rank:  1

    Sub Condition: 
      Type: dirichlet
      Gradient:
        Dataset: Unnamed Ascii Dataset
          Type: dataset_ascii_type
          Transient: no
          Array Rank:  3
      Data:
        Dataset: Unnamed Ascii Dataset
          Type: dataset_ascii_type
          Is transient?: yes
          Number of times:     42
          Is cyclic?: no
          Buffer:
            Rank:  2
            Dims:    1  42
            Buffer Slice Size:   0
          Array Rank:  1

--------------------------------------------------------------------------------
 
=+=+=+=+=+=+=+=+=+=+=+=+=+=+=+=+=+=+=+=+=+=+=+=+=+=+=+=+=+=+=+=+=+=+=+=+=+=+=+=+

  Boundary Condition

--------------------------------------------------------------------------------
          Flow Condition:   bottom
                  Region:   bottom
--------------------------------------------------------------------------------

  Flow Condition: bottom
    Synchronize time with update: no
    Time units: 
    Length units: 
      Datum:

    Sub Condition: 
      Type: neumann
      Gradient:
      Data:
        Dataset: Unnamed Ascii Dataset
          Type: dataset_ascii_type
          Transient: no
          Array Rank:  1

    Sub Condition: 
      Type: neumann
      Gradient:
      Data:
        Dataset: Unnamed Ascii Dataset
          Type: dataset_ascii_type
          Transient: no
          Array Rank:  1

    Sub Condition: 
      Type: neumann
      Gradient:
      Data:
        Dataset: Unnamed Ascii Dataset
          Type: dataset_ascii_type
          Transient: no
          Array Rank:  1

--------------------------------------------------------------------------------

 Requested processors and decomposition =     1, npx,y,z=   -1  -1  -1
 Actual decomposition: npx,y,z=    1   1   1


FLOW Time Stepper
acceleration: on
acceleration threshold: 5
number of ramp entries: 5
ramp entry #1: 2.0000
ramp entry #2: 2.0000
ramp entry #3: 2.0000
ramp entry #4: 2.0000
ramp entry #5: 2.0000
ramp entry #6: 1.8000
ramp entry #7: 1.6000
ramp entry #8: 1.4000
ramp entry #9: 1.2000
ramp entry #10: 1.0000
ramp entry #11: 1.0000
ramp entry #12: 1.0000
ramp entry #13: 1.0000
maximum number of steps: 10000
constant time steps threshold: 5
maximum number of cuts: 16
reduction factor: 5.000000E-01
maximum growth factor: 2.000000E+00

FLOW Newton Solver
atol: 1.000000E-50
rtol: 1.000000E-08
stol: 1.000000E-08
dtol: 1.000000E+09
maxnorm: 1.000000E+20
inftolres: -9.990000E+02
inftolupd: -9.990000E+02
inftolrelupd: -9.990000E+02
inftolsclres: -9.990000E+02
max iter: 8
min iter: 1
maxf: 10000
matrix type: baij
precond. matrix type: baij
inexact newton: off
print convergence: on
print detailed convergence: off
check infinity norm: on

FLOW Linear Solver
solver: bcgs
preconditioner: ilu
atol: 1.000000E-50
rtol: 1.000000E-05
dtol: 1.000000E+04
maximum iteration: 10000

== GAS HYDRATE + MULTIPHASE FLOW ===============================================
 Step      1 Time=  1.00000E-06 Dt=  1.00000E-06 [y] snes_conv_reason:  999
  newton =   2 [       2] linear =     2 [         2] cuts =  0 [   0]
  --> max chng: dpl=   5.7367E+04 dpg=   2.9446E+01 dpa=   2.9446E+01
                dxa=   2.4914E-09  dt=   8.6513E-05 dsg=   4.6082E-12
                dsh=   1.9299E-08 dsl=   1.9299E-08 dsi=   0.0000E+00

== GAS HYDRATE + MULTIPHASE FLOW ===============================================
 Step      2 Time=  3.00000E-06 Dt=  2.00000E-06 [y] snes_conv_reason:  999
  newton =   1 [       3] linear =     1 [         3] cuts =  0 [   0]
  --> max chng: dpl=   5.5955E+01 dpg=   5.5955E+01 dpa=   5.5955E+01
                dxa=   4.7343E-09  dt=   2.1909E-05 dsg=   9.2184E-12
                dsh=   3.6674E-08 dsl=   3.6674E-08 dsi=   0.0000E+00

== GAS HYDRATE + MULTIPHASE FLOW ===============================================
 Step      3 Time=  7.00000E-06 Dt=  4.00000E-06 [y] snes_conv_reason:  999
  newton =   1 [       4] linear =     1 [         4] cuts =  0 [   0]
  --> max chng: dpl=   1.0216E+02 dpg=   1.0216E+02 dpa=   1.0216E+02
                dxa=   8.6435E-09  dt=   4.3813E-05 dsg=   1.8445E-11
                dsh=   6.6956E-08 dsl=   6.6956E-08 dsi=   0.0000E+00

== GAS HYDRATE + MULTIPHASE FLOW ===============================================
 Step      4 Time=  1.50000E-05 Dt=  8.00000E-06 [y] snes_conv_reason:  999
  newton =   1 [       5] linear =     1 [         5] cuts =  0 [   0]
  --> max chng: dpl=   1.7587E+02 dpg=   1.7587E+02 dpa=   1.7587E+02
                dxa=   1.4880E-08  dt=   8.7599E-05 dsg=   3.6918E-11
                dsh=   1.1527E-07 dsl=   1.1527E-07 dsi=   0.0000E+00

== GAS HYDRATE + MULTIPHASE FLOW ===============================================
 Step      5 Time=  3.10000E-05 Dt=  1.60000E-05 [y] snes_conv_reason:  999
  newton =   1 [       6] linear =     1 [         6] cuts =  0 [   0]
  --> max chng: dpl=   2.8231E+02 dpg=   2.8231E+02 dpa=   2.8231E+02
                dxa=   2.3888E-08  dt=   1.7510E-04 dsg=   7.3940E-11
                dsh=   1.8504E-07 dsl=   1.8504E-07 dsi=   0.0000E+00

== GAS HYDRATE + MULTIPHASE FLOW ===============================================
 Step      6 Time=  6.30000E-05 Dt=  3.20000E-05 [y] snes_conv_reason:  999
  newton =   1 [       7] linear =     1 [         7] cuts =  0 [   0]
  --> max chng: dpl=   4.2503E+02 dpg=   4.2503E+02 dpa=   4.2503E+02
                dxa=   3.5967E-08  dt=   3.4978E-04 dsg=   1.4826E-10
                dsh=   2.7861E-07 dsl=   2.7861E-07 dsi=   0.0000E+00

== GAS HYDRATE + MULTIPHASE FLOW ===============================================
 Step      7 Time=  1.27000E-04 Dt=  6.40000E-05 [y] snes_conv_reason:  999
  newton =   1 [       8] linear =     1 [         8] cuts =  0 [   0]
  --> max chng: dpl=   6.1215E+02 dpg=   6.1215E+02 dpa=   6.1215E+02
                dxa=   5.1807E-08  dt=   6.9793E-04 dsg=   2.9786E-10
                dsh=   4.0132E-07 dsl=   4.0132E-07 dsi=   0.0000E+00

== GAS HYDRATE + MULTIPHASE FLOW ===============================================
 Step      8 Time=  2.55000E-04 Dt=  1.28000E-04 [y] snes_conv_reason:  999
  newton =   1 [       9] linear =     1 [         9] cuts =  0 [   0]
  --> max chng: dpl=   8.5914E+02 dpg=   8.5914E+02 dpa=   8.5914E+02
                dxa=   7.2725E-08  dt=   1.3893E-03 dsg=   6.0056E-10
                dsh=   5.6335E-07 dsl=   5.6335E-07 dsi=   0.0000E+00

== GAS HYDRATE + MULTIPHASE FLOW ===============================================
 Step      9 Time=  5.11000E-04 Dt=  2.56000E-04 [y] snes_conv_reason:  999
  newton =   1 [      10] linear =     1 [        10] cuts =  0 [   0]
  --> max chng: dpl=   1.1856E+03 dpg=   1.1856E+03 dpa=   1.1856E+03
                dxa=   1.0040E-07  dt=   2.7528E-03 dsg=   1.2182E-09
                dsh=   7.7773E-07 dsl=   7.7773E-07 dsi=   0.0000E+00

== GAS HYDRATE + MULTIPHASE FLOW ===============================================
 Step     10 Time=  1.02300E-03 Dt=  5.12000E-04 [y] snes_conv_reason:  999
  newton =   2 [      12] linear =     2 [        12] cuts =  0 [   0]
  --> max chng: dpl=   1.4910E+03 dpg=   1.4910E+03 dpa=   1.4910E+03
                dxa=   1.2624E-07  dt=   5.4042E-03 dsg=   2.5028E-09
                dsh=   9.7788E-07 dsl=   9.7788E-07 dsi=   0.0000E+00

== GAS HYDRATE + MULTIPHASE FLOW ===============================================
 Step     11 Time=  2.04700E-03 Dt=  1.02400E-03 [y] snes_conv_reason:  999
  newton =   2 [      14] linear =     2 [        14] cuts =  0 [   0]
  --> max chng: dpl=   1.9521E+03 dpg=   1.9521E+03 dpa=   1.9521E+03
                dxa=   1.6531E-07  dt=   1.0419E-02 dsg=   5.1950E-09
                dsh=   1.2806E-06 dsl=   1.2806E-06 dsi=   0.0000E+00

== GAS HYDRATE + MULTIPHASE FLOW ===============================================
 Step     12 Time=  4.09500E-03 Dt=  2.04800E-03 [y] snes_conv_reason:  999
  newton =   2 [      16] linear =     2 [        16] cuts =  0 [   0]
  --> max chng: dpl=   2.7161E+03 dpg=   2.7161E+03 dpa=   2.7161E+03
                dxa=   2.3008E-07  dt=   1.9401E-02 dsg=   1.0936E-08
                dsh=   1.7825E-06 dsl=   1.7825E-06 dsi=   0.0000E+00

== GAS HYDRATE + MULTIPHASE FLOW ===============================================
 Step     13 Time=  8.19100E-03 Dt=  4.09600E-03 [y] snes_conv_reason:  999
  newton =   2 [      18] linear =     2 [        18] cuts =  0 [   0]
  --> max chng: dpl=   3.5793E+03 dpg=   3.5793E+03 dpa=   3.5793E+03
                dxa=   3.0343E-07  dt=   3.3864E-02 dsg=   2.3335E-08
                dsh=   2.3507E-06 dsl=   2.3507E-06 dsi=   0.0000E+00

== GAS HYDRATE + MULTIPHASE FLOW ===============================================
 Step     14 Time=  1.63830E-02 Dt=  8.19200E-03 [y] snes_conv_reason:  999
  newton =   2 [      20] linear =     2 [        20] cuts =  0 [   0]
  --> max chng: dpl=   4.5212E+03 dpg=   4.5212E+03 dpa=   4.5212E+03
                dxa=   3.8377E-07  dt=   5.2817E-02 dsg=   5.0475E-08
                dsh=   2.9720E-06 dsl=   2.9720E-06 dsi=   0.0000E+00

== GAS HYDRATE + MULTIPHASE FLOW ===============================================
 Step     15 Time=  3.27670E-02 Dt=  1.63840E-02 [y] snes_conv_reason:  999
  newton =   2 [      22] linear =     2 [        22] cuts =  0 [   0]
  --> max chng: dpl=   5.4950E+03 dpg=   5.4950E+03 dpa=   5.4950E+03
                dxa=   4.6743E-07  dt=   6.9037E-02 dsg=   1.1334E-07
                dsh=   3.6101E-06 dsl=   3.6101E-06 dsi=   0.0000E+00

== GAS HYDRATE + MULTIPHASE FLOW ===============================================
 Step     16 Time=  6.55350E-02 Dt=  3.27680E-02 [y] snes_conv_reason:  999
  newton =   2 [      24] linear =     2 [        24] cuts =  0 [   0]
  --> max chng: dpl=   6.4277E+03 dpg=   6.4277E+03 dpa=   6.4277E+03
                dxa=   5.4862E-07  dt=   7.1264E-02 dsg=   3.5703E-07
                dsh=   4.2302E-06 dsl=   4.2302E-06 dsi=   0.0000E+00

== GAS HYDRATE + MULTIPHASE FLOW ===============================================
 Step     17 Time=  1.31071E-01 Dt=  6.55360E-02 [y] snes_conv_reason:  999
  newton =   2 [      26] linear =     2 [        26] cuts =  0 [   0]
  --> max chng: dpl=   7.2272E+03 dpg=   7.2272E+03 dpa=   7.2273E+03
                dxa=   6.2039E-07  dt=   6.6467E-02 dsg=   2.1799E-06
                dsh=   4.7718E-06 dsl=   4.7718E-06 dsi=   0.0000E+00

== GAS HYDRATE + MULTIPHASE FLOW ===============================================
 Step     18 Time=  2.62143E-01 Dt=  1.31072E-01 [y] snes_conv_reason:  999
  newton =   2 [      28] linear =     2 [        28] cuts =  0 [   0]
  --> max chng: dpl=   7.7073E+03 dpg=   7.7073E+03 dpa=   7.7074E+03
                dxa=   6.6718E-07  dt=   6.9938E-02 dsg=   1.2221E-05
                dsh=   6.4487E-06 dsl=   5.7719E-06 dsi=   0.0000E+00

== GAS HYDRATE + MULTIPHASE FLOW ===============================================
 Step     19 Time=  5.24287E-01 Dt=  2.62144E-01 [y] snes_conv_reason:  999
  newton =   2 [      30] linear =     2 [        30] cuts =  0 [   0]
  --> max chng: dpl=   7.1515E+03 dpg=   7.1515E+03 dpa=   7.1515E+03
                dxa=   6.2431E-07  dt=   6.9702E-02 dsg=   4.5462E-05
                dsh=   2.4238E-05 dsl=   2.1225E-05 dsi=   0.0000E+00

== GAS HYDRATE + MULTIPHASE FLOW ===============================================
 Step     20 Time=  1.04857E+00 Dt=  5.24288E-01 [y] snes_conv_reason:  999
  newton =   2 [      32] linear =     2 [        32] cuts =  0 [   0]
  --> max chng: dpl=   4.8995E+03 dpg=   4.8995E+03 dpa=   4.8995E+03
                dxa=   4.2921E-07  dt=   6.9278E-02 dsg=   1.2096E-04
                dsh=   6.5059E-05 dsl=   5.5906E-05 dsi=   0.0000E+00

== GAS HYDRATE + MULTIPHASE FLOW ===============================================
 Step     21 Time=  2.09715E+00 Dt=  1.04858E+00 [y] snes_conv_reason:  999
  newton =   2 [      34] linear =     2 [        34] cuts =  0 [   0]
  --> max chng: dpl=   2.3810E+03 dpg=   2.3810E+03 dpa=   2.3810E+03
                dxa=   2.0629E-07  dt=   6.8828E-02 dsg=   2.6388E-04
                dsh=   1.4275E-04 dsl=   1.2113E-04 dsi=   0.0000E+00

== GAS HYDRATE + MULTIPHASE FLOW ===============================================
 Step     22 Time=  4.19430E+00 Dt=  2.09715E+00 [y] snes_conv_reason:  999
  newton =   2 [      36] linear =     2 [        36] cuts =  0 [   0]
  --> max chng: dpl=   1.1654E+03 dpg=   1.1654E+03 dpa=   1.1654E+03
                dxa=   2.6899E-07  dt=   6.9002E-02 dsg=   5.2996E-04
                dsh=   2.8765E-04 dsl=   2.4231E-04 dsi=   0.0000E+00

== GAS HYDRATE + MULTIPHASE FLOW ===============================================
 Step     23 Time=  8.38861E+00 Dt=  4.19430E+00 [y] snes_conv_reason:  999
  newton =   2 [      38] linear =     2 [        38] cuts =  0 [   0]
  --> max chng: dpl=   1.3090E+03 dpg=   1.3070E+03 dpa=   1.3070E+03
                dxa=   3.7992E-07  dt=   6.9046E-02 dsg=   1.0388E-03
                dsh=   5.6496E-04 dsl=   4.7385E-04 dsi=   0.0000E+00

== GAS HYDRATE + MULTIPHASE FLOW ===============================================
 Step     24 Time=  1.67772E+01 Dt=  8.38861E+00 [y] snes_conv_reason:  999
  newton =   2 [      40] linear =     2 [        40] cuts =  0 [   0]
  --> max chng: dpl=   1.8060E+03 dpg=   1.8028E+03 dpa=   1.8027E+03
                dxa=   7.8572E-07  dt=   6.9091E-02 dsg=   2.0207E-03
                dsh=   1.1005E-03 dsl=   9.2021E-04 dsi=   0.0000E+00

== GAS HYDRATE + MULTIPHASE FLOW ===============================================
 Step     25 Time=  3.35544E+01 Dt=  1.67772E+01 [y] snes_conv_reason:  999
  newton =   2 [      42] linear =     2 [        42] cuts =  0 [   0]
  --> max chng: dpl=   2.4935E+03 dpg=   2.4873E+03 dpa=   2.4873E+03
                dxa=   2.4626E-06  dt=   6.9108E-02 dsg=   3.9395E-03
                dsh=   2.1481E-03 dsl=   1.7914E-03 dsi=   0.0000E+00

== GAS HYDRATE + MULTIPHASE FLOW ===============================================
 Step     26 Time=  6.71089E+01 Dt=  3.35544E+01 [y] snes_conv_reason:  999
  newton =   4 [      46] linear =     4 [        46] cuts =  0 [   0]
  --> max chng: dpl=   3.5149E+03 dpg=   3.5020E+03 dpa=   3.5023E+03
                dxa=   4.6866E-06  dt=   6.8989E-02 dsg=   7.8988E-03
                dsh=   4.3122E-03 dsl=   3.5866E-03 dsi=   0.0000E+00

== GAS HYDRATE + MULTIPHASE FLOW ===============================================
 Step     27 Time=  1.00000E+02 Dt=  3.28911E+01 [y] snes_conv_reason:  999
  newton =   4 [      50] linear =     4 [        50] cuts =  0 [   0]
  --> max chng: dpl=   2.9286E+03 dpg=   2.9164E+03 dpa=   2.9167E+03
                dxa=   3.8038E-06  dt=   4.3063E-02 dsg=   8.2667E-03
                dsh=   4.5143E-03 dsl=   3.7523E-03 dsi=   0.0000E+00

== GAS HYDRATE + MULTIPHASE FLOW ===============================================
 Step     28 Time=  1.33554E+02 Dt=  3.35544E+01 [y] snes_conv_reason:  999
  newton =  15 [      65] linear =    15 [        65] cuts =  1 [   1]
  --> max chng: dpl=   1.0023E+04 dpg=   9.9646E+03 dpa=   9.9652E+03
                dxa=   3.4770E-06  dt=   3.1599E-02 dsg=   9.0301E-04
                dsh=   5.4184E-04 dsl=   4.5374E-04 dsi=   0.0000E+00

== GAS HYDRATE + MULTIPHASE FLOW ===============================================
 Step     29 Time=  1.67109E+02 Dt=  3.35544E+01 [y] snes_conv_reason:  999
  newton =   4 [      69] linear =     4 [        69] cuts =  0 [   1]
  --> max chng: dpl=   4.3803E+03 dpg=   4.3657E+03 dpa=   4.3661E+03
                dxa=   2.4232E-06  dt=   2.4560E-02 dsg=   5.0635E-03
                dsh=   2.7569E-03 dsl=   2.3065E-03 dsi=   0.0000E+00

== GAS HYDRATE + MULTIPHASE FLOW ===============================================
 Step     30 Time=  2.00000E+02 Dt=  3.28911E+01 [y] snes_conv_reason:  999
  newton =   4 [      73] linear =     4 [        73] cuts =  0 [   1]
  --> max chng: dpl=   3.7431E+03 dpg=   3.7294E+03 dpa=   3.7298E+03
                dxa=   2.0038E-06  dt=   1.9653E-02 dsg=   5.9206E-03
                dsh=   3.2259E-03 dsl=   2.6947E-03 dsi=   0.0000E+00

== GAS HYDRATE + MULTIPHASE FLOW ===============================================
 Step     31 Time=  2.33554E+02 Dt=  3.35544E+01 [y] snes_conv_reason:  999
  newton =   4 [      77] linear =     4 [        77] cuts =  0 [   1]
  --> max chng: dpl=   3.2753E+03 dpg=   3.2631E+03 dpa=   3.2635E+03
                dxa=   1.7607E-06  dt=   1.6838E-02 dsg=   6.7487E-03
                dsh=   3.6784E-03 dsl=   3.0703E-03 dsi=   0.0000E+00

== GAS HYDRATE + MULTIPHASE FLOW ===============================================
 Step     32 Time=  2.67109E+02 Dt=  3.35544E+01 [y] snes_conv_reason:  999
  newton =   2 [      79] linear =     2 [        79] cuts =  0 [   1]
  --> max chng: dpl=   2.9415E+03 dpg=   2.9297E+03 dpa=   2.9301E+03
                dxa=   1.5699E-06  dt=   1.4466E-02 dsg=   6.7139E-03
                dsh=   1.8757E-05 dsl=   3.0597E-03 dsi=   0.0000E+00

== GAS HYDRATE + MULTIPHASE FLOW ===============================================
 Step     33 Time=  3.00000E+02 Dt=  3.28911E+01 [y] snes_conv_reason:  999
  newton =   6 [      85] linear =     6 [        85] cuts =  0 [   1]
  --> max chng: dpl=   8.6882E+03 dpg=   8.6480E+03 dpa=   8.6485E+03
                dxa=   3.0447E-06  dt=   1.2394E-02 dsg=   8.0596E-05
                dsh=   5.7966E-04 dsl=   4.8682E-04 dsi=   0.0000E+00
 Dt limited by Unknown: Val=-9.990E+02, Gov=-9.990E+02, Scale=0.33


== GAS HYDRATE + MULTIPHASE FLOW ===============================================
 Step     34 Time=  3.33554E+02 Dt=  3.35544E+01 [y] snes_conv_reason:  999
  newton =   4 [      89] linear =     4 [        89] cuts =  0 [   1]
  --> max chng: dpl=   3.9414E+03 dpg=   3.9278E+03 dpa=   3.9282E+03
                dxa=   1.3939E-06  dt=   1.1278E-02 dsg=   4.1668E-03
                dsh=   2.2634E-03 dsl=   1.9034E-03 dsi=   0.0000E+00

== GAS HYDRATE + MULTIPHASE FLOW ===============================================
 Step     35 Time=  4.00000E+02 Dt=  6.64456E+01 [y] snes_conv_reason:  999
  newton =   5 [      94] linear =     5 [        94] cuts =  0 [   1]
  --> max chng: dpl=   6.0233E+03 dpg=   5.9999E+03 dpa=   6.0007E+03
                dxa=   2.0500E-06  dt=   1.8400E-02 dsg=   1.0150E-02
                dsh=   5.5206E-03 dsl=   4.6293E-03 dsi=   0.0000E+00
 Dt limited by Unknown: Val=-9.990E+02, Gov=-9.990E+02, Scale=0.33


== GAS HYDRATE + MULTIPHASE FLOW ===============================================
 Step     36 Time=  4.67109E+02 Dt=  6.71089E+01 [y] snes_conv_reason:  999
  newton =   2 [      96] linear =     2 [        96] cuts =  0 [   1]
  --> max chng: dpl=   5.3077E+03 dpg=   5.2849E+03 dpa=   5.2857E+03
                dxa=   1.9591E-06  dt=   1.5553E-02 dsg=   1.0350E-02
                dsh=   2.7898E-05 dsl=   4.7328E-03 dsi=   0.0000E+00

== GAS HYDRATE + MULTIPHASE FLOW ===============================================
 Step     37 Time=  5.00000E+02 Dt=  3.28911E+01 [y] snes_conv_reason:  999
  newton =   5 [     101] linear =     5 [       101] cuts =  0 [   1]
  --> max chng: dpl=   8.2748E+03 dpg=   8.2748E+03 dpa=   8.2752E+03
                dxa=   2.8395E-06  dt=   6.9018E-03 dsg=   7.5590E-05
                dsh=   1.6285E-04 dsl=   1.3931E-04 dsi=   0.0000E+00
 Dt limited by Unknown: Val=-9.990E+02, Gov=-9.990E+02, Scale=0.33


== GAS HYDRATE + MULTIPHASE FLOW ===============================================
 Step     38 Time=  6.00000E+02 Dt=  1.00000E+02 [y] snes_conv_reason:  999
  newton =   5 [     106] linear =     5 [       106] cuts =  0 [   1]
  --> max chng: dpl=   8.9300E+03 dpg=   8.8946E+03 dpa=   8.8958E+03
                dxa=   2.7450E-06  dt=   1.7558E-02 dsg=   1.0006E-02
                dsh=   5.4255E-03 dsl=   4.5800E-03 dsi=   0.0000E+00
 Dt limited by Unknown: Val=-9.990E+02, Gov=-9.990E+02, Scale=0.33


== GAS HYDRATE + MULTIPHASE FLOW ===============================================
 Step     39 Time=  7.00000E+02 Dt=  1.00000E+02 [y] snes_conv_reason:  999
  newton =   6 [     112] linear =     6 [       112] cuts =  0 [   1]
  --> max chng: dpl=   7.0436E+03 dpg=   7.0115E+03 dpa=   7.0127E+03
                dxa=   2.2490E-06  dt=   1.4460E-02 dsg=   1.2761E-02
                dsh=   6.9215E-03 dsl=   5.8391E-03 dsi=   0.0000E+00
 Dt limited by Unknown: Val=-9.990E+02, Gov=-9.990E+02, Scale=0.33


== GAS HYDRATE + MULTIPHASE FLOW ===============================================
 Step     40 Time=  8.00000E+02 Dt=  1.00000E+02 [y] snes_conv_reason:  999
  newton =   5 [     117] linear =     5 [       117] cuts =  0 [   1]
  --> max chng: dpl=   1.2271E+04 dpg=   1.2271E+04 dpa=   1.2271E+04
                dxa=   4.0249E-06  dt=   1.2140E-02 dsg=   3.0576E-03
                dsh=   4.3601E-05 dsl=   1.4534E-03 dsi=   0.0000E+00
 Dt limited by Unknown: Val=-9.990E+02, Gov=-9.990E+02, Scale=0.33


== GAS HYDRATE + MULTIPHASE FLOW ===============================================
 Step     41 Time=  8.50000E+02 Dt=  5.00000E+01 [y] snes_conv_reason:  999
  newton =  15 [     132] linear =    15 [       132] cuts =  1 [   2]
  --> max chng: dpl=   6.6977E+03 dpg=   6.1564E+03 dpa=   6.1562E+03
                dxa=   1.3989E-06  dt=   5.5127E-03 dsg=   6.2829E-05
                dsh=   2.1584E-03 dsl=   1.8392E-03 dsi=   0.0000E+00

== GAS HYDRATE + MULTIPHASE FLOW ===============================================
 Step     42 Time=  9.00000E+02 Dt=  5.00000E+01 [y] snes_conv_reason:  999
  newton =   4 [     136] linear =     4 [       136] cuts =  0 [   2]
  --> max chng: dpl=   4.0854E+03 dpg=   4.0683E+03 dpa=   4.0689E+03
                dxa=   1.2656E-06  dt=   5.1402E-03 dsg=   4.6347E-03
                dsh=   2.5027E-03 dsl=   2.1320E-03 dsi=   0.0000E+00

== GAS HYDRATE + MULTIPHASE FLOW ===============================================
 Step     43 Time=  9.50000E+02 Dt=  5.00000E+01 [y] snes_conv_reason:  999
  newton =   4 [     140] linear =     4 [       140] cuts =  0 [   2]
  --> max chng: dpl=   3.7612E+03 dpg=   3.7448E+03 dpa=   3.7454E+03
                dxa=   1.1819E-06  dt=   4.7447E-03 dsg=   5.0390E-03
                dsh=   2.7227E-03 dsl=   2.3163E-03 dsi=   0.0000E+00

== GAS HYDRATE + MULTIPHASE FLOW ===============================================
 Step     44 Time=  1.00000E+03 Dt=  5.00000E+01 [y] snes_conv_reason:  999
  newton =   4 [     144] linear =     4 [       144] cuts =  0 [   2]
  --> max chng: dpl=   3.4995E+03 dpg=   3.4837E+03 dpa=   3.4843E+03
                dxa=   1.1154E-06  dt=   4.3947E-03 dsg=   5.4299E-03
                dsh=   2.9345E-03 dsl=   2.4954E-03 dsi=   0.0000E+00

== GAS HYDRATE + MULTIPHASE FLOW ===============================================
 Step     45 Time=  1.05000E+03 Dt=  5.00000E+01 [y] snes_conv_reason:  999
  newton =   4 [     148] linear =     4 [       148] cuts =  0 [   2]
  --> max chng: dpl=   3.3510E+03 dpg=   3.2810E+03 dpa=   3.2808E+03
                dxa=   1.0553E-06  dt=   4.0850E-03 dsg=   5.8803E-03
                dsh=   3.1772E-03 dsl=   2.7031E-03 dsi=   0.0000E+00

== GAS HYDRATE + MULTIPHASE FLOW ===============================================
 Step     46 Time=  1.10000E+03 Dt=  5.00000E+01 [y] snes_conv_reason:  999
  newton =   2 [     150] linear =     2 [       150] cuts =  0 [   2]
  --> max chng: dpl=   6.8985E+03 dpg=   6.8916E+03 dpa=   6.8918E+03
                dxa=   2.2409E-06  dt=   3.8015E-03 dsg=   1.5163E-03
                dsh=   2.1573E-05 dsl=   7.2371E-04 dsi=   0.0000E+00

== GAS HYDRATE + MULTIPHASE FLOW ===============================================
 Step     47 Time=  1.15000E+03 Dt=  5.00000E+01 [y] snes_conv_reason:  999
  newton =   2 [     152] linear =     2 [       152] cuts =  0 [   2]
  --> max chng: dpl=   5.2355E+03 dpg=   5.2239E+03 dpa=   5.2240E+03
                dxa=   1.7019E-06  dt=   3.5761E-03 dsg=   7.0902E-05
                dsh=   2.0361E-05 dsl=   7.0902E-05 dsi=   0.0000E+00

== GAS HYDRATE + MULTIPHASE FLOW ===============================================
 Step     48 Time=  1.20000E+03 Dt=  5.00000E+01 [y] snes_conv_reason:  999
  newton =   7 [     159] linear =     7 [       159] cuts =  0 [   2]
  --> max chng: dpl=   4.1490E+03 dpg=   4.1322E+03 dpa=   4.1327E+03
                dxa=   1.2361E-06  dt=   3.3830E-03 dsg=   5.6821E-05
                dsh=   1.0034E-03 dsl=   8.6274E-04 dsi=   0.0000E+00
 Dt limited by Unknown: Val=-9.990E+02, Gov=-9.990E+02, Scale=0.33


== GAS HYDRATE + MULTIPHASE FLOW ===============================================
 Step     49 Time=  1.30000E+03 Dt=  1.00000E+02 [y] snes_conv_reason:  999
  newton =   3 [     162] linear =     3 [       162] cuts =  0 [   2]
  --> max chng: dpl=   6.0845E+03 dpg=   6.0544E+03 dpa=   6.0556E+03
                dxa=   1.9213E-06  dt=   5.9527E-03 dsg=   4.8658E-03
                dsh=   2.6174E-03 dsl=   2.2484E-03 dsi=   0.0000E+00

== GAS HYDRATE + MULTIPHASE FLOW ===============================================
 Step     50 Time=  1.40000E+03 Dt=  1.00000E+02 [y] snes_conv_reason:  999
  newton =   4 [     166] linear =     4 [       166] cuts =  0 [   2]
  --> max chng: dpl=   4.9471E+03 dpg=   4.9189E+03 dpa=   4.9201E+03
                dxa=   1.9174E-06  dt=   5.7370E-03 dsg=   5.5397E-03
                dsh=   2.9829E-03 dsl=   2.5567E-03 dsi=   0.0000E+00

== GAS HYDRATE + MULTIPHASE FLOW ===============================================
 Step     51 Time=  1.50000E+03 Dt=  1.00000E+02 [y] snes_conv_reason:  999
  newton =   5 [     171] linear =     5 [       171] cuts =  0 [   2]
  --> max chng: dpl=   4.3255E+03 dpg=   4.2982E+03 dpa=   4.2993E+03
                dxa=   1.9141E-06  dt=   5.6339E-03 dsg=   6.0420E-03
                dsh=   3.2545E-03 dsl=   2.7875E-03 dsi=   0.0000E+00
 Dt limited by Unknown: Val=-9.990E+02, Gov=-9.990E+02, Scale=0.33


== GAS HYDRATE + MULTIPHASE FLOW ===============================================
 Step     52 Time=  1.60000E+03 Dt=  1.00000E+02 [y] snes_conv_reason:  999
  newton =   5 [     176] linear =     5 [       176] cuts =  0 [   2]
  --> max chng: dpl=   3.8791E+03 dpg=   3.8530E+03 dpa=   3.8541E+03
                dxa=   1.9112E-06  dt=   5.5334E-03 dsg=   6.6822E-03
                dsh=   3.5978E-03 dsl=   3.0844E-03 dsi=   0.0000E+00
 Dt limited by Unknown: Val=-9.990E+02, Gov=-9.990E+02, Scale=0.33


== GAS HYDRATE + MULTIPHASE FLOW ===============================================
 Step     53 Time=  1.70000E+03 Dt=  1.00000E+02 [y] snes_conv_reason:  999
  newton =   2 [     178] linear =     2 [       178] cuts =  0 [   2]
  --> max chng: dpl=   6.7532E+03 dpg=   6.7413E+03 dpa=   6.7414E+03
                dxa=   2.1375E-06  dt=   5.4053E-03 dsg=   1.9905E-03
                dsh=   3.7024E-05 dsl=   9.5092E-04 dsi=   0.0000E+00

== GAS HYDRATE + MULTIPHASE FLOW ===============================================
 Step     54 Time=  1.80000E+03 Dt=  1.00000E+02 [y] snes_conv_reason:  999
  newton =   2 [     180] linear =     2 [       180] cuts =  0 [   2]
  --> max chng: dpl=   5.6348E+03 dpg=   5.6181E+03 dpa=   5.6182E+03
                dxa=   1.9056E-06  dt=   5.3064E-03 dsg=   1.1183E-04
                dsh=   3.5714E-05 dsl=   1.1183E-04 dsi=   0.0000E+00

== GAS HYDRATE + MULTIPHASE FLOW ===============================================
 Step     55 Time=  1.90000E+03 Dt=  1.00000E+02 [y] snes_conv_reason:  999
  newton =   7 [     187] linear =     7 [       187] cuts =  0 [   2]
  --> max chng: dpl=   4.6442E+03 dpg=   4.6167E+03 dpa=   4.6177E+03
                dxa=   1.9029E-06  dt=   5.2369E-03 dsg=   1.0130E-04
                dsh=   9.6930E-04 dsl=   8.4668E-04 dsi=   0.0000E+00
 Dt limited by Unknown: Val=-9.990E+02, Gov=-9.990E+02, Scale=0.33


== GAS HYDRATE + MULTIPHASE FLOW ===============================================
 Step     56 Time=  2.00000E+03 Dt=  1.00000E+02 [y] snes_conv_reason:  999
  newton =   4 [     191] linear =     4 [       191] cuts =  0 [   2]
  --> max chng: dpl=   3.8110E+03 dpg=   3.7850E+03 dpa=   3.7861E+03
                dxa=   1.9003E-06  dt=   5.1715E-03 dsg=   3.3976E-03
                dsh=   1.8179E-03 dsl=   1.5797E-03 dsi=   0.0000E+00

== GAS HYDRATE + MULTIPHASE FLOW ===============================================
 Step     57 Time=  2.10000E+03 Dt=  1.00000E+02 [y] snes_conv_reason:  999
  newton =   4 [     195] linear =     4 [       195] cuts =  0 [   2]
  --> max chng: dpl=   3.5716E+03 dpg=   3.4896E+03 dpa=   3.4896E+03
                dxa=   1.8977E-06  dt=   5.1023E-03 dsg=   4.1170E-03
                dsh=   2.2063E-03 dsl=   1.9107E-03 dsi=   0.0000E+00

== GAS HYDRATE + MULTIPHASE FLOW ===============================================
 Step     58 Time=  2.20000E+03 Dt=  1.00000E+02 [y] snes_conv_reason:  999
  newton =   5 [     200] linear =     5 [       200] cuts =  0 [   2]
  --> max chng: dpl=   6.5478E+03 dpg=   6.0694E+03 dpa=   6.0694E+03
                dxa=   1.8952E-06  dt=   5.0288E-03 dsg=   5.6029E-03
                dsh=   3.0047E-03 dsl=   2.5982E-03 dsi=   0.0000E+00
 Dt limited by Unknown: Val=-9.990E+02, Gov=-9.990E+02, Scale=0.33


== GAS HYDRATE + MULTIPHASE FLOW ===============================================
 Step     59 Time=  2.30000E+03 Dt=  1.00000E+02 [y] snes_conv_reason:  999
  newton =   5 [     205] linear =     5 [       205] cuts =  0 [   2]
  --> max chng: dpl=   6.5482E+03 dpg=   6.1012E+03 dpa=   6.1012E+03
                dxa=   1.8928E-06  dt=   4.9605E-03 dsg=   7.1742E-03
                dsh=   3.8476E-03 dsl=   3.3266E-03 dsi=   0.0000E+00
 Dt limited by Unknown: Val=-9.990E+02, Gov=-9.990E+02, Scale=0.33


== GAS HYDRATE + MULTIPHASE FLOW ===============================================
 Step     60 Time=  2.40000E+03 Dt=  1.00000E+02 [y] snes_conv_reason:  999
  newton =   2 [     207] linear =     2 [       207] cuts =  0 [   2]
  --> max chng: dpl=   6.5512E+03 dpg=   6.3878E+03 dpa=   6.3877E+03
                dxa=   1.8904E-06  dt=   4.8840E-03 dsg=   5.5462E-03
                dsh=   3.6896E-05 dsl=   2.5958E-03 dsi=   0.0000E+00

== GAS HYDRATE + MULTIPHASE FLOW ===============================================
 Step     61 Time=  2.50000E+03 Dt=  1.00000E+02 [y] snes_conv_reason:  999
  newton =   5 [     212] linear =     5 [       212] cuts =  0 [   2]
  --> max chng: dpl=   8.6730E+03 dpg=   8.6722E+03 dpa=   8.6724E+03
                dxa=   2.8270E-06  dt=   4.8037E-03 dsg=   1.2739E-04
                dsh=   7.4283E-05 dsl=   1.2739E-04 dsi=   0.0000E+00
 Dt limited by Unknown: Val=-9.990E+02, Gov=-9.990E+02, Scale=0.33


== GAS HYDRATE + MULTIPHASE FLOW ===============================================
 Step     62 Time=  2.60000E+03 Dt=  1.00000E+02 [y] snes_conv_reason:  999
  newton =   4 [     216] linear =     4 [       216] cuts =  0 [   2]
  --> max chng: dpl=   6.5488E+03 dpg=   6.1611E+03 dpa=   6.1610E+03
                dxa=   1.8851E-06  dt=   4.7630E-03 dsg=   5.0822E-03
                dsh=   2.7133E-03 dsl=   2.3688E-03 dsi=   0.0000E+00

== GAS HYDRATE + MULTIPHASE FLOW ===============================================
 Step     63 Time=  2.70000E+03 Dt=  1.00000E+02 [y] snes_conv_reason:  999
  newton =   5 [     221] linear =     5 [       221] cuts =  0 [   2]
  --> max chng: dpl=   6.5495E+03 dpg=   6.2227E+03 dpa=   6.2228E+03
                dxa=   1.8826E-06  dt=   4.7236E-03 dsg=   6.9539E-03
                dsh=   3.7194E-03 dsl=   3.2346E-03 dsi=   0.0000E+00
 Dt limited by Unknown: Val=-9.990E+02, Gov=-9.990E+02, Scale=0.33


== GAS HYDRATE + MULTIPHASE FLOW ===============================================
 Step     64 Time=  2.80000E+03 Dt=  1.00000E+02 [y] snes_conv_reason:  999
  newton =   5 [     226] linear =     5 [       226] cuts =  0 [   2]
  --> max chng: dpl=   6.5493E+03 dpg=   6.2153E+03 dpa=   6.2154E+03
                dxa=   1.8801E-06  dt=   4.6847E-03 dsg=   8.7071E-03
                dsh=   4.6589E-03 dsl=   4.0481E-03 dsi=   0.0000E+00
 Dt limited by Unknown: Val=-9.990E+02, Gov=-9.990E+02, Scale=0.33


== GAS HYDRATE + MULTIPHASE FLOW ===============================================
 Step     65 Time=  2.90000E+03 Dt=  1.00000E+02 [y] snes_conv_reason:  999
  newton =   2 [     228] linear =     2 [       228] cuts =  0 [   2]
  --> max chng: dpl=   6.6914E+03 dpg=   6.4490E+03 dpa=   6.4491E+03
                dxa=   1.9775E-06  dt=   4.6388E-03 dsg=   7.3905E-03
                dsh=   3.6987E-05 dsl=   3.4603E-03 dsi=   0.0000E+00

== GAS HYDRATE + MULTIPHASE FLOW ===============================================
 Step     66 Time=  3.00000E+03 Dt=  1.00000E+02 [y] snes_conv_reason:  999
  newton =   7 [     235] linear =     7 [       235] cuts =  0 [   2]
  --> max chng: dpl=   9.1556E+03 dpg=   9.1449E+03 dpa=   9.1452E+03
                dxa=   3.0045E-06  dt=   4.5855E-03 dsg=   1.3056E-04
                dsh=   8.7491E-04 dsl=   7.7693E-04 dsi=   0.0000E+00
 Dt limited by Unknown: Val=-9.990E+02, Gov=-9.990E+02, Scale=0.33


== GAS HYDRATE + MULTIPHASE FLOW ===============================================
 Step     67 Time=  3.10000E+03 Dt=  1.00000E+02 [y] snes_conv_reason:  999
  newton =   5 [     240] linear =     5 [       240] cuts =  0 [   2]
  --> max chng: dpl=   6.5494E+03 dpg=   6.2200E+03 dpa=   6.2201E+03
                dxa=   1.8723E-06  dt=   4.5626E-03 dsg=   6.5739E-03
                dsh=   3.5031E-03 dsl=   3.0708E-03 dsi=   0.0000E+00
 Dt limited by Unknown: Val=-9.990E+02, Gov=-9.990E+02, Scale=0.33


== GAS HYDRATE + MULTIPHASE FLOW ===============================================
 Step     68 Time=  3.20000E+03 Dt=  1.00000E+02 [y] snes_conv_reason:  999
  newton =   5 [     245] linear =     5 [       245] cuts =  0 [   2]
  --> max chng: dpl=   8.4335E+03 dpg=   7.8828E+03 dpa=   7.8830E+03
                dxa=   1.8698E-06  dt=   4.5400E-03 dsg=   9.2725E-03
                dsh=   4.9460E-03 dsl=   4.3264E-03 dsi=   0.0000E+00
 Dt limited by Unknown: Val=-9.990E+02, Gov=-9.990E+02, Scale=0.33


== GAS HYDRATE + MULTIPHASE FLOW ===============================================
 Step     69 Time=  3.30000E+03 Dt=  1.00000E+02 [y] snes_conv_reason:  999
  newton =   3 [     248] linear =     3 [       248] cuts =  0 [   2]
  --> max chng: dpl=   8.4339E+03 dpg=   7.9161E+03 dpa=   7.9163E+03
                dxa=   2.0045E-06  dt=   4.5162E-03 dsg=   1.1293E-02
                dsh=   4.2621E-05 dsl=   5.2777E-03 dsi=   0.0000E+00

== GAS HYDRATE + MULTIPHASE FLOW ===============================================
 Step     70 Time=  3.40000E+03 Dt=  1.00000E+02 [y] snes_conv_reason:  999
  newton =   7 [     255] linear =     7 [       255] cuts =  0 [   2]
  --> max chng: dpl=   1.1755E+04 dpg=   1.1738E+04 dpa=   1.1738E+04
                dxa=   3.8969E-06  dt=   4.4684E-03 dsg=   1.4315E-04
                dsh=   1.2882E-03 dsl=   1.1459E-03 dsi=   0.0000E+00
 Dt limited by Unknown: Val=-9.990E+02, Gov=-9.990E+02, Scale=0.33


== GAS HYDRATE + MULTIPHASE FLOW ===============================================
 Step     71 Time=  3.50000E+03 Dt=  1.00000E+02 [y] snes_conv_reason:  999
  newton =   5 [     260] linear =     5 [       260] cuts =  0 [   2]
  --> max chng: dpl=   8.4342E+03 dpg=   7.9481E+03 dpa=   7.9483E+03
                dxa=   2.0554E-06  dt=   4.4577E-03 dsg=   8.7082E-03
                dsh=   4.6288E-03 dsl=   4.0794E-03 dsi=   0.0000E+00
 Dt limited by Unknown: Val=-9.990E+02, Gov=-9.990E+02, Scale=0.33


== GAS HYDRATE + MULTIPHASE FLOW ===============================================
 Step     72 Time=  3.60000E+03 Dt=  1.00000E+02 [y] snes_conv_reason:  999
  newton =   6 [     266] linear =     6 [       266] cuts =  0 [   2]
  --> max chng: dpl=   8.4342E+03 dpg=   7.9429E+03 dpa=   7.9431E+03
                dxa=   1.8591E-06  dt=   4.4512E-03 dsg=   1.1898E-02
                dsh=   6.3277E-03 dsl=   5.5705E-03 dsi=   0.0000E+00
 Dt limited by Unknown: Val=-9.990E+02, Gov=-9.990E+02, Scale=0.33


== GAS HYDRATE + MULTIPHASE FLOW ===============================================
 Step     73 Time=  3.70000E+03 Dt=  1.00000E+02 [y] snes_conv_reason:  999
  newton =   3 [     269] linear =     3 [       269] cuts =  0 [   2]
  --> max chng: dpl=   1.0020E+04 dpg=   1.0002E+04 dpa=   1.0002E+04
                dxa=   3.2648E-06  dt=   4.4250E-03 dsg=   6.3056E-03
                dsh=   3.7690E-05 dsl=   2.9952E-03 dsi=   0.0000E+00

== GAS HYDRATE + MULTIPHASE FLOW ===============================================
 Step     74 Time=  3.75000E+03 Dt=  5.00000E+01 [y] snes_conv_reason:  999
  newton =  15 [     284] linear =    15 [       284] cuts =  1 [   3]
  --> max chng: dpl=   8.4334E+03 dpg=   7.8738E+03 dpa=   7.8740E+03
                dxa=   1.7637E-06  dt=   4.0867E-03 dsg=   7.0586E-05
                dsh=   1.8543E-03 dsl=   1.6495E-03 dsi=   0.0000E+00

== GAS HYDRATE + MULTIPHASE FLOW ===============================================
 Step     75 Time=  3.80000E+03 Dt=  5.00000E+01 [y] snes_conv_reason:  999
  newton =   4 [     288] linear =     4 [       288] cuts =  0 [   3]
  --> max chng: dpl=   4.2181E+03 dpg=   4.1562E+03 dpa=   4.1566E+03
                dxa=   1.3091E-06  dt=   2.2647E-03 dsg=   5.1706E-03
                dsh=   2.7385E-03 dsl=   2.4321E-03 dsi=   0.0000E+00

== GAS HYDRATE + MULTIPHASE FLOW ===============================================
 Step     76 Time=  3.85000E+03 Dt=  5.00000E+01 [y] snes_conv_reason:  999
  newton =   4 [     292] linear =     4 [       292] cuts =  0 [   3]
  --> max chng: dpl=   4.2179E+03 dpg=   4.0436E+03 dpa=   4.0437E+03
                dxa=   1.0846E-06  dt=   2.2054E-03 dsg=   6.0339E-03
                dsh=   3.1982E-03 dsl=   2.8358E-03 dsi=   0.0000E+00

== GAS HYDRATE + MULTIPHASE FLOW ===============================================
 Step     77 Time=  3.90000E+03 Dt=  5.00000E+01 [y] snes_conv_reason:  999
  newton =   5 [     297] linear =     5 [       297] cuts =  0 [   3]
  --> max chng: dpl=   4.2175E+03 dpg=   4.0105E+03 dpa=   4.0106E+03
                dxa=   1.0088E-06  dt=   2.2066E-03 dsg=   6.8883E-03
                dsh=   3.6517E-03 dsl=   3.2366E-03 dsi=   0.0000E+00

== GAS HYDRATE + MULTIPHASE FLOW ===============================================
 Step     78 Time=  3.95000E+03 Dt=  5.00000E+01 [y] snes_conv_reason:  999
  newton =   5 [     302] linear =     5 [       302] cuts =  0 [   3]
  --> max chng: dpl=   4.2169E+03 dpg=   3.9562E+03 dpa=   3.9563E+03
                dxa=   9.8055E-07  dt=   2.2087E-03 dsg=   7.9241E-03
                dsh=   4.1992E-03 dsl=   3.7249E-03 dsi=   0.0000E+00

== GAS HYDRATE + MULTIPHASE FLOW ===============================================
 Step     79 Time=  4.00000E+03 Dt=  5.00000E+01 [y] snes_conv_reason:  999
  newton =   5 [     307] linear =     5 [       307] cuts =  0 [   3]
  --> max chng: dpl=   9.9506E+03 dpg=   9.9447E+03 dpa=   9.9451E+03
                dxa=   3.4054E-06  dt=   4.6138E-03 dsg=   2.9636E-04
                dsh=   2.1080E-05 dsl=   1.8267E-04 dsi=   0.0000E+00
 Dt limited by Unknown: Val=-9.990E+02, Gov=-9.990E+02, Scale=0.33


== GAS HYDRATE + MULTIPHASE FLOW ===============================================
 Step     80 Time=  4.05000E+03 Dt=  5.00000E+01 [y] snes_conv_reason:  999
  newton =   7 [     314] linear =     7 [       314] cuts =  0 [   3]
  --> max chng: dpl=   4.7247E+03 dpg=   4.7075E+03 dpa=   4.7078E+03
                dxa=   1.3391E-06  dt=   2.1943E-03 dsg=   6.3060E-05
                dsh=   2.1808E-03 dsl=   1.9481E-03 dsi=   0.0000E+00
 Dt limited by Unknown: Val=-9.990E+02, Gov=-9.990E+02, Scale=0.33


== GAS HYDRATE + MULTIPHASE FLOW ===============================================
 Step     81 Time=  4.06650E+03 Dt=  1.65000E+01 [y] snes_conv_reason:  999
  newton =   2 [     316] linear =     2 [       316] cuts =  0 [   3]
  --> max chng: dpl=   1.8398E+03 dpg=   1.6926E+03 dpa=   1.6926E+03
                dxa=   5.3739E-07  dt=   2.0166E-03 dsg=   1.6039E-03
                dsh=   8.4647E-04 dsl=   7.5745E-04 dsi=   0.0000E+00

== GAS HYDRATE + MULTIPHASE FLOW ===============================================
 Step     82 Time=  4.10000E+03 Dt=  3.35000E+01 [y] snes_conv_reason:  999
  newton =   3 [     319] linear =     3 [       319] cuts =  0 [   3]
  --> max chng: dpl=   2.8058E+03 dpg=   2.7959E+03 dpa=   2.7962E+03
                dxa=   7.5766E-07  dt=   1.4734E-03 dsg=   3.4651E-03
                dsh=   1.8308E-03 dsl=   1.6343E-03 dsi=   0.0000E+00

== GAS HYDRATE + MULTIPHASE FLOW ===============================================
 Step     83 Time=  4.13300E+03 Dt=  3.30000E+01 [y] snes_conv_reason:  999
  newton =   3 [     322] linear =     3 [       322] cuts =  0 [   3]
  --> max chng: dpl=   2.5059E+03 dpg=   2.4958E+03 dpa=   2.4961E+03
                dxa=   6.8073E-07  dt=   1.4537E-03 dsg=   3.6557E-03
                dsh=   1.9326E-03 dsl=   1.7231E-03 dsi=   0.0000E+00

== GAS HYDRATE + MULTIPHASE FLOW ===============================================
 Step     84 Time=  4.20000E+03 Dt=  6.70000E+01 [y] snes_conv_reason:  999
  newton =   5 [     327] linear =     5 [       327] cuts =  0 [   3]
  --> max chng: dpl=   4.1693E+03 dpg=   4.1500E+03 dpa=   4.1506E+03
                dxa=   1.4408E-06  dt=   2.9603E-03 dsg=   7.9501E-03
                dsh=   4.2060E-03 dsl=   3.7441E-03 dsi=   0.0000E+00
 Dt limited by Unknown: Val=-9.990E+02, Gov=-9.990E+02, Scale=0.33


== GAS HYDRATE + MULTIPHASE FLOW ===============================================
 Step     85 Time=  4.26600E+03 Dt=  6.60000E+01 [y] snes_conv_reason:  999
  newton =   5 [     332] linear =     5 [       332] cuts =  0 [   3]
  --> max chng: dpl=   3.3975E+03 dpg=   3.3798E+03 dpa=   3.3804E+03
                dxa=   1.2156E-06  dt=   2.9225E-03 dsg=   8.9157E-03
                dsh=   4.7151E-03 dsl=   4.2006E-03 dsi=   0.0000E+00
 Dt limited by Unknown: Val=-9.990E+02, Gov=-9.990E+02, Scale=0.33


== GAS HYDRATE + MULTIPHASE FLOW ===============================================
 Step     86 Time=  4.28778E+03 Dt=  2.17800E+01 [y] snes_conv_reason:  999
  newton =   2 [     334] linear =     2 [       334] cuts =  0 [   3]
  --> max chng: dpl=   5.0903E+03 dpg=   5.0680E+03 dpa=   5.0683E+03
                dxa=   1.7387E-06  dt=   2.6687E-03 dsg=   4.7116E-04
                dsh=   9.7245E-06 dsl=   2.4256E-04 dsi=   0.0000E+00

== GAS HYDRATE + MULTIPHASE FLOW ===============================================
 Step     87 Time=  4.30000E+03 Dt=  1.22200E+01 [y] snes_conv_reason:  999
  newton =   1 [     335] linear =     1 [       335] cuts =  0 [   3]
  --> max chng: dpl=   2.0260E+03 dpg=   2.0231E+03 dpa=   2.0231E+03
                dxa=   6.7914E-07  dt=   1.1255E-03 dsg=   2.1516E-05
                dsh=   4.7520E-06 dsl=   2.1516E-05 dsi=   0.0000E+00

== GAS HYDRATE + MULTIPHASE FLOW ===============================================
 Step     88 Time=  4.34356E+03 Dt=  4.35600E+01 [y] snes_conv_reason:  999
  newton =   1 [     336] linear =     1 [       336] cuts =  0 [   3]
  --> max chng: dpl=   4.4631E+03 dpg=   4.4494E+03 dpa=   4.4495E+03
                dxa=   1.4791E-06  dt=   2.3001E-03 dsg=   6.2368E-05
                dsh=   1.4709E-05 dsl=   6.2368E-05 dsi=   0.0000E+00

== GAS HYDRATE + MULTIPHASE FLOW ===============================================
 Step     89 Time=  4.40000E+03 Dt=  5.64400E+01 [y] snes_conv_reason:  999
  newton =   7 [     343] linear =     7 [       343] cuts =  0 [   3]
  --> max chng: dpl=   3.9443E+03 dpg=   3.9275E+03 dpa=   3.9280E+03
                dxa=   1.0702E-06  dt=   2.4866E-03 dsg=   5.5525E-05
                dsh=   2.2844E-03 dsl=   2.0573E-03 dsi=   0.0000E+00
 Dt limited by Unknown: Val=-9.990E+02, Gov=-9.990E+02, Scale=0.33


== GAS HYDRATE + MULTIPHASE FLOW ===============================================
 Step     90 Time=  4.48712E+03 Dt=  8.71200E+01 [y] snes_conv_reason:  999
  newton =   5 [     348] linear =     5 [       348] cuts =  0 [   3]
  --> max chng: dpl=   4.4921E+03 dpg=   4.4688E+03 dpa=   4.4696E+03
                dxa=   1.5991E-06  dt=   3.8466E-03 dsg=   7.3145E-03
                dsh=   3.8590E-03 dsl=   3.4555E-03 dsi=   0.0000E+00
 Dt limited by Unknown: Val=-9.990E+02, Gov=-9.990E+02, Scale=0.33


== GAS HYDRATE + MULTIPHASE FLOW ===============================================
 Step     91 Time=  4.50000E+03 Dt=  1.28800E+01 [y] snes_conv_reason:  999
  newton =   3 [     351] linear =     3 [       351] cuts =  0 [   3]
  --> max chng: dpl=   3.2035E+03 dpg=   2.7455E+03 dpa=   2.7455E+03
                dxa=   2.3639E-07  dt=   3.4720E-03 dsg=   1.2583E-03
                dsh=   6.6330E-04 dsl=   5.9497E-04 dsi=   0.0000E+00

== GAS HYDRATE + MULTIPHASE FLOW ===============================================
 Step     92 Time=  4.52875E+03 Dt=  2.87496E+01 [y] snes_conv_reason:  999
  newton =   3 [     354] linear =     3 [       354] cuts =  0 [   3]
  --> max chng: dpl=   1.3154E+03 dpg=   1.3077E+03 dpa=   1.3079E+03
                dxa=   9.0333E-07  dt=   1.5631E-03 dsg=   2.8793E-03
                dsh=   1.5191E-03 dsl=   1.3602E-03 dsi=   0.0000E+00

== GAS HYDRATE + MULTIPHASE FLOW ===============================================
 Step     93 Time=  4.58625E+03 Dt=  5.74992E+01 [y] snes_conv_reason:  999
  newton =   4 [     358] linear =     4 [       358] cuts =  0 [   3]
  --> max chng: dpl=   2.3325E+03 dpg=   2.3186E+03 dpa=   2.3191E+03
                dxa=   1.0541E-06  dt=   2.5423E-03 dsg=   6.1109E-03
                dsh=   3.2256E-03 dsl=   2.8853E-03 dsi=   0.0000E+00

== GAS HYDRATE + MULTIPHASE FLOW ===============================================
 Step     94 Time=  4.60000E+03 Dt=  1.37512E+01 [y] snes_conv_reason:  999
  newton =   3 [     361] linear =     3 [       361] cuts =  0 [   3]
  --> max chng: dpl=   2.1145E+03 dpg=   1.8271E+03 dpa=   1.8272E+03
                dxa=   2.5207E-07  dt=   2.3000E-03 dsg=   1.5971E-03
                dsh=   8.4245E-04 dsl=   7.5461E-04 dsi=   0.0000E+00

== GAS HYDRATE + MULTIPHASE FLOW ===============================================
 Step     95 Time=  4.70000E+03 Dt=  1.00000E+02 [y] snes_conv_reason:  999
  newton =   2 [     363] linear =     2 [       363] cuts =  0 [   3]
  --> max chng: dpl=   5.4817E+03 dpg=   5.1686E+03 dpa=   5.1689E+03
                dxa=   1.8301E-06  dt=   4.4127E-03 dsg=   7.1306E-03
                dsh=   3.2896E-05 dsl=   3.3968E-03 dsi=   0.0000E+00

== GAS HYDRATE + MULTIPHASE FLOW ===============================================
 Step     96 Time=  4.80000E+03 Dt=  1.00000E+02 [y] snes_conv_reason:  999
  newton =   7 [     370] linear =     7 [       370] cuts =  0 [   3]
  --> max chng: dpl=   6.0029E+03 dpg=   5.9912E+03 dpa=   5.9916E+03
                dxa=   2.1348E-06  dt=   4.3985E-03 dsg=   1.1501E-04
                dsh=   1.7946E-03 dsl=   1.6227E-03 dsi=   0.0000E+00
 Dt limited by Unknown: Val=-9.990E+02, Gov=-9.990E+02, Scale=0.33


== GAS HYDRATE + MULTIPHASE FLOW ===============================================
 Step     97 Time=  4.90000E+03 Dt=  1.00000E+02 [y] snes_conv_reason:  999
  newton =   5 [     375] linear =     5 [       375] cuts =  0 [   3]
  --> max chng: dpl=   4.1164E+03 dpg=   4.0914E+03 dpa=   4.0923E+03
                dxa=   1.8249E-06  dt=   4.3970E-03 dsg=   7.2714E-03
                dsh=   3.8254E-03 dsl=   3.4460E-03 dsi=   0.0000E+00
 Dt limited by Unknown: Val=-9.990E+02, Gov=-9.990E+02, Scale=0.33


== GAS HYDRATE + MULTIPHASE FLOW ===============================================
 Step     98 Time=  5.00000E+03 Dt=  1.00000E+02 [y] snes_conv_reason:  999
  newton =   5 [     380] linear =     5 [       380] cuts =  0 [   3]
  --> max chng: dpl=   3.6807E+03 dpg=   3.4800E+03 dpa=   3.4803E+03
                dxa=   1.8225E-06  dt=   4.3969E-03 dsg=   9.1242E-03
                dsh=   4.8045E-03 dsl=   4.3197E-03 dsi=   0.0000E+00
 Dt limited by Unknown: Val=-9.990E+02, Gov=-9.990E+02, Scale=0.33


== GAS HYDRATE + MULTIPHASE FLOW ===============================================
 Step     99 Time=  5.10000E+03 Dt=  1.00000E+02 [y] snes_conv_reason:  999
  newton =   3 [     383] linear =     3 [       383] cuts =  0 [   3]
  --> max chng: dpl=   3.6798E+03 dpg=   3.3957E+03 dpa=   3.3959E+03
                dxa=   1.8203E-06  dt=   4.4088E-03 dsg=   1.1202E-02
                dsh=   3.9971E-05 dsl=   5.3078E-03 dsi=   0.0000E+00

== GAS HYDRATE + MULTIPHASE FLOW ===============================================
 Step    100 Time=  5.20000E+03 Dt=  1.00000E+02 [y] snes_conv_reason:  999
  newton =   7 [     390] linear =     7 [       390] cuts =  0 [   3]
  --> max chng: dpl=   9.8159E+03 dpg=   9.8040E+03 dpa=   9.8046E+03
                dxa=   3.4449E-06  dt=   5.5377E-03 dsg=   1.3105E-04
                dsh=   9.9185E-04 dsl=   9.0769E-04 dsi=   0.0000E+00
 Dt limited by Unknown: Val=-9.990E+02, Gov=-9.990E+02, Scale=0.33


== GAS HYDRATE + MULTIPHASE FLOW ===============================================
 Step    101 Time=  5.30000E+03 Dt=  1.00000E+02 [y] snes_conv_reason:  999
  newton =   5 [     395] linear =     5 [       395] cuts =  0 [   3]
  --> max chng: dpl=   7.6896E+03 dpg=   7.0232E+03 dpa=   7.0234E+03
                dxa=   1.8159E-06  dt=   4.3436E-03 dsg=   8.4346E-03
                dsh=   4.4251E-03 dsl=   4.0095E-03 dsi=   0.0000E+00
 Dt limited by Unknown: Val=-9.990E+02, Gov=-9.990E+02, Scale=0.33


== GAS HYDRATE + MULTIPHASE FLOW ===============================================
 Step    102 Time=  5.40000E+03 Dt=  1.00000E+02 [y] snes_conv_reason:  999
  newton =   6 [     401] linear =     6 [       401] cuts =  0 [   3]
  --> max chng: dpl=   7.6901E+03 dpg=   7.0751E+03 dpa=   7.0754E+03
                dxa=   1.8136E-06  dt=   4.3379E-03 dsg=   1.1764E-02
                dsh=   6.1762E-03 dsl=   5.5875E-03 dsi=   0.0000E+00
 Dt limited by Unknown: Val=-9.990E+02, Gov=-9.990E+02, Scale=0.33


== GAS HYDRATE + MULTIPHASE FLOW ===============================================
 Step    103 Time=  5.50000E+03 Dt=  1.00000E+02 [y] snes_conv_reason:  999
  newton =   3 [     404] linear =     3 [       404] cuts =  0 [   3]
  --> max chng: dpl=   7.6958E+03 dpg=   7.5862E+03 dpa=   7.5864E+03
                dxa=   2.3023E-06  dt=   4.3139E-03 dsg=   9.4582E-03
                dsh=   3.4760E-05 dsl=   4.5219E-03 dsi=   0.0000E+00

== GAS HYDRATE + MULTIPHASE FLOW ===============================================
 Step    104 Time=  5.55000E+03 Dt=  5.00000E+01 [y] snes_conv_reason:  999
  newton =  15 [     419] linear =    15 [       419] cuts =  1 [   4]
  --> max chng: dpl=   7.6937E+03 dpg=   7.3982E+03 dpa=   7.3983E+03
                dxa=   2.1452E-06  dt=   4.0896E-03 dsg=   7.5896E-05
                dsh=   1.4632E-03 dsl=   1.3387E-03 dsi=   0.0000E+00

== GAS HYDRATE + MULTIPHASE FLOW ===============================================
 Step    105 Time=  5.60000E+03 Dt=  5.00000E+01 [y] snes_conv_reason:  999
  newton =   4 [     423] linear =     4 [       423] cuts =  0 [   4]
  --> max chng: dpl=   3.8462E+03 dpg=   3.6379E+03 dpa=   3.6380E+03
                dxa=   1.0479E-06  dt=   2.3634E-03 dsg=   5.0994E-03
                dsh=   2.6661E-03 dsl=   2.4333E-03 dsi=   0.0000E+00

== GAS HYDRATE + MULTIPHASE FLOW ===============================================
 Step    106 Time=  5.65000E+03 Dt=  5.00000E+01 [y] snes_conv_reason:  999
  newton =   4 [     427] linear =     4 [       427] cuts =  0 [   4]
  --> max chng: dpl=   3.8461E+03 dpg=   3.6304E+03 dpa=   3.6306E+03
                dxa=   9.3472E-07  dt=   2.1578E-03 dsg=   6.0800E-03
                dsh=   3.1817E-03 dsl=   2.8983E-03 dsi=   0.0000E+00

== GAS HYDRATE + MULTIPHASE FLOW ===============================================
 Step    107 Time=  5.70000E+03 Dt=  5.00000E+01 [y] snes_conv_reason:  999
  newton =   5 [     432] linear =     5 [       432] cuts =  0 [   4]
  --> max chng: dpl=   3.8458E+03 dpg=   3.6050E+03 dpa=   3.6051E+03
                dxa=   9.0380E-07  dt=   2.1451E-03 dsg=   7.0013E-03
                dsh=   3.6650E-03 dsl=   3.3363E-03 dsi=   0.0000E+00

== GAS HYDRATE + MULTIPHASE FLOW ===============================================
 Step    108 Time=  5.75000E+03 Dt=  5.00000E+01 [y] snes_conv_reason:  999
  newton =   5 [     437] linear =     5 [       437] cuts =  0 [   4]
  --> max chng: dpl=   3.8452E+03 dpg=   3.5546E+03 dpa=   3.5547E+03
                dxa=   9.0323E-07  dt=   2.1439E-03 dsg=   8.1067E-03
                dsh=   4.2423E-03 dsl=   3.8643E-03 dsi=   0.0000E+00

== GAS HYDRATE + MULTIPHASE FLOW ===============================================
 Step    109 Time=  5.80000E+03 Dt=  5.00000E+01 [y] snes_conv_reason:  999
  newton =   2 [     439] linear =     2 [       439] cuts =  0 [   4]
  --> max chng: dpl=   7.9819E+03 dpg=   7.8250E+03 dpa=   7.8254E+03
                dxa=   2.6663E-06  dt=   3.6369E-03 dsg=   2.9441E-03
                dsh=   1.9329E-05 dsl=   1.4424E-03 dsi=   0.0000E+00

== GAS HYDRATE + MULTIPHASE FLOW ===============================================
 Step    110 Time=  5.85000E+03 Dt=  5.00000E+01 [y] snes_conv_reason:  999
  newton =   7 [     446] linear =     7 [       446] cuts =  0 [   4]
  --> max chng: dpl=   4.2689E+03 dpg=   4.2546E+03 dpa=   4.2548E+03
                dxa=   1.3629E-06  dt=   2.1247E-03 dsg=   6.6240E-05
                dsh=   1.9795E-03 dsl=   1.8164E-03 dsi=   0.0000E+00
 Dt limited by Unknown: Val=-9.990E+02, Gov=-9.990E+02, Scale=0.33


== GAS HYDRATE + MULTIPHASE FLOW ===============================================
 Step    111 Time=  5.86650E+03 Dt=  1.65000E+01 [y] snes_conv_reason:  999
  newton =   3 [     449] linear =     3 [       449] cuts =  0 [   4]
  --> max chng: dpl=   3.8430E+03 dpg=   3.3569E+03 dpa=   3.3570E+03
                dxa=   3.9298E-07  dt=   2.0178E-03 dsg=   1.7589E-03
                dsh=   9.1628E-04 dsl=   8.4260E-04 dsi=   0.0000E+00

== GAS HYDRATE + MULTIPHASE FLOW ===============================================
 Step    112 Time=  5.90000E+03 Dt=  3.35000E+01 [y] snes_conv_reason:  999
  newton =   3 [     452] linear =     3 [       452] cuts =  0 [   4]
  --> max chng: dpl=   2.5565E+03 dpg=   2.5464E+03 dpa=   2.5467E+03
                dxa=   7.1115E-07  dt=   1.4590E-03 dsg=   3.9451E-03
                dsh=   2.0578E-03 dsl=   1.8873E-03 dsi=   0.0000E+00

== GAS HYDRATE + MULTIPHASE FLOW ===============================================
 Step    113 Time=  5.93300E+03 Dt=  3.30000E+01 [y] snes_conv_reason:  999
  newton =   4 [     456] linear =     4 [       456] cuts =  0 [   4]
  --> max chng: dpl=   2.5769E+03 dpg=   2.4334E+03 dpa=   2.4335E+03
                dxa=   6.5137E-07  dt=   1.4007E-03 dsg=   4.3317E-03
                dsh=   2.2605E-03 dsl=   2.0712E-03 dsi=   0.0000E+00

== GAS HYDRATE + MULTIPHASE FLOW ===============================================
 Step    114 Time=  6.00000E+03 Dt=  6.70000E+01 [y] snes_conv_reason:  999
  newton =   5 [     461] linear =     5 [       461] cuts =  0 [   4]
  --> max chng: dpl=   4.1115E+03 dpg=   4.0929E+03 dpa=   4.0935E+03
                dxa=   1.2063E-06  dt=   2.8462E-03 dsg=   9.8141E-03
                dsh=   5.1251E-03 dsl=   4.6889E-03 dsi=   0.0000E+00
 Dt limited by Unknown: Val=-9.990E+02, Gov=-9.990E+02, Scale=0.33


== GAS HYDRATE + MULTIPHASE FLOW ===============================================
 Step    115 Time=  6.06600E+03 Dt=  6.60000E+01 [y] snes_conv_reason:  999
  newton =   2 [     463] linear =     2 [       463] cuts =  0 [   4]
  --> max chng: dpl=   5.2330E+03 dpg=   5.0182E+03 dpa=   5.0183E+03
                dxa=   1.6137E-06  dt=   2.7963E-03 dsg=   8.7631E-03
                dsh=   2.3536E-05 dsl=   4.2093E-03 dsi=   0.0000E+00

== GAS HYDRATE + MULTIPHASE FLOW ===============================================
 Step    116 Time=  6.10000E+03 Dt=  3.40000E+01 [y] snes_conv_reason:  999
  newton =   5 [     468] linear =     5 [       468] cuts =  0 [   4]
  --> max chng: dpl=   6.2074E+03 dpg=   6.2074E+03 dpa=   6.2077E+03
                dxa=   2.1616E-06  dt=   1.2435E-02 dsg=   6.8077E-05
                dsh=   4.5372E-04 dsl=   4.2111E-04 dsi=   0.0000E+00
 Dt limited by Unknown: Val=-9.990E+02, Gov=-9.990E+02, Scale=0.33


== GAS HYDRATE + MULTIPHASE FLOW ===============================================
 Step    117 Time=  6.20000E+03 Dt=  1.00000E+02 [y] snes_conv_reason:  999
  newton =   6 [     474] linear =     6 [       474] cuts =  0 [   4]
  --> max chng: dpl=   6.8584E+03 dpg=   6.8290E+03 dpa=   6.8298E+03
                dxa=   2.2638E-06  dt=   9.1686E-03 dsg=   1.0013E-02
                dsh=   5.2128E-03 dsl=   4.7998E-03 dsi=   0.0000E+00
 Dt limited by Unknown: Val=-9.990E+02, Gov=-9.990E+02, Scale=0.33


== GAS HYDRATE + MULTIPHASE FLOW ===============================================
 Step    118 Time=  6.30000E+03 Dt=  1.00000E+02 [y] snes_conv_reason:  999
  newton =   6 [     480] linear =     6 [       480] cuts =  0 [   4]
  --> max chng: dpl=   5.4535E+03 dpg=   5.4266E+03 dpa=   5.4275E+03
                dxa=   1.7920E-06  dt=   2.2287E-02 dsg=   1.3353E-02
                dsh=   6.9572E-03 dsl=   6.3959E-03 dsi=   0.0000E+00
 Dt limited by Unknown: Val=-9.990E+02, Gov=-9.990E+02, Scale=0.33


== GAS HYDRATE + MULTIPHASE FLOW ===============================================
 Step    119 Time=  6.40000E+03 Dt=  1.00000E+02 [y] snes_conv_reason:  999
  newton =   3 [     483] linear =     3 [       483] cuts =  0 [   4]
  --> max chng: dpl=   7.2824E+03 dpg=   7.2730E+03 dpa=   7.2734E+03
                dxa=   2.5563E-06  dt=   2.2381E-02 dsg=   8.5742E-03
                dsh=   3.3255E-05 dsl=   4.1430E-03 dsi=   0.0000E+00

== GAS HYDRATE + MULTIPHASE FLOW ===============================================
 Step    120 Time=  6.45000E+03 Dt=  5.00000E+01 [y] snes_conv_reason:  999
  newton =  15 [     498] linear =    15 [       498] cuts =  1 [   5]
  --> max chng: dpl=   5.1058E+03 dpg=   4.9118E+03 dpa=   4.9123E+03
                dxa=   1.5464E-06  dt=   2.2221E-02 dsg=   6.4193E-05
                dsh=   2.0433E-03 dsl=   1.8957E-03 dsi=   0.0000E+00

== GAS HYDRATE + MULTIPHASE FLOW ===============================================
 Step    121 Time=  6.50000E+03 Dt=  5.00000E+01 [y] snes_conv_reason:  999
  newton =   4 [     502] linear =     4 [       502] cuts =  0 [   5]
  --> max chng: dpl=   3.0801E+03 dpg=   3.0659E+03 dpa=   3.0663E+03
                dxa=   9.3607E-07  dt=   1.1871E-02 dsg=   5.4802E-03
                dsh=   2.8448E-03 dsl=   2.6354E-03 dsi=   0.0000E+00

== GAS HYDRATE + MULTIPHASE FLOW ===============================================
 Step    122 Time=  6.55000E+03 Dt=  5.00000E+01 [y] snes_conv_reason:  999
  newton =   4 [     506] linear =     4 [       506] cuts =  0 [   5]
  --> max chng: dpl=   2.8081E+03 dpg=   2.7947E+03 dpa=   2.7952E+03
                dxa=   8.9321E-07  dt=   1.1235E-02 dsg=   6.2841E-03
                dsh=   3.2649E-03 dsl=   3.0191E-03 dsi=   0.0000E+00

== GAS HYDRATE + MULTIPHASE FLOW ===============================================
 Step    123 Time=  6.60000E+03 Dt=  5.00000E+01 [y] snes_conv_reason:  999
  newton =   5 [     511] linear =     5 [       511] cuts =  0 [   5]
  --> max chng: dpl=   2.5524E+03 dpg=   2.4742E+03 dpa=   2.4746E+03
                dxa=   9.8861E-07  dt=   1.1224E-02 dsg=   7.1220E-03
                dsh=   3.7014E-03 dsl=   3.4206E-03 dsi=   0.0000E+00

== GAS HYDRATE + MULTIPHASE FLOW ===============================================
 Step    124 Time=  6.65000E+03 Dt=  5.00000E+01 [y] snes_conv_reason:  999
  newton =   5 [     516] linear =     5 [       516] cuts =  0 [   5]
  --> max chng: dpl=   2.5516E+03 dpg=   2.3448E+03 dpa=   2.3454E+03
                dxa=   8.9216E-07  dt=   1.1221E-02 dsg=   8.1913E-03
                dsh=   4.2557E-03 dsl=   3.9356E-03 dsi=   0.0000E+00

== GAS HYDRATE + MULTIPHASE FLOW ===============================================
 Step    125 Time=  6.70000E+03 Dt=  5.00000E+01 [y] snes_conv_reason:  999
  newton =   3 [     519] linear =     3 [       519] cuts =  0 [   5]
  --> max chng: dpl=   6.8045E+03 dpg=   6.8045E+03 dpa=   6.8050E+03
                dxa=   2.4375E-06  dt=   1.1220E-02 dsg=   2.2102E-03
                dsh=   1.7589E-05 dsl=   1.0937E-03 dsi=   0.0000E+00

== GAS HYDRATE + MULTIPHASE FLOW ===============================================
 Step    126 Time=  6.75000E+03 Dt=  5.00000E+01 [y] snes_conv_reason:  999
  newton =   7 [     526] linear =     7 [       526] cuts =  0 [   5]
  --> max chng: dpl=   3.3376E+03 dpg=   3.3244E+03 dpa=   3.3246E+03
                dxa=   1.0664E-06  dt=   1.1220E-02 dsg=   6.0310E-05
                dsh=   2.0621E-03 dsl=   1.9198E-03 dsi=   0.0000E+00
 Dt limited by Unknown: Val=-9.990E+02, Gov=-9.990E+02, Scale=0.33


== GAS HYDRATE + MULTIPHASE FLOW ===============================================
 Step    127 Time=  6.76650E+03 Dt=  1.65000E+01 [y] snes_conv_reason:  999
  newton =   3 [     529] linear =     3 [       529] cuts =  0 [   5]
  --> max chng: dpl=   2.5503E+03 dpg=   2.2284E+03 dpa=   2.2286E+03
                dxa=   3.1197E-07  dt=   1.0975E-02 dsg=   1.7042E-03
                dsh=   8.8182E-04 dsl=   8.2234E-04 dsi=   0.0000E+00

== GAS HYDRATE + MULTIPHASE FLOW ===============================================
 Step    128 Time=  6.80000E+03 Dt=  3.35000E+01 [y] snes_conv_reason:  999
  newton =   3 [     532] linear =     3 [       532] cuts =  0 [   5]
  --> max chng: dpl=   1.9984E+03 dpg=   1.9898E+03 dpa=   1.9901E+03
                dxa=   5.9669E-07  dt=   7.2660E-03 dsg=   3.8315E-03
                dsh=   1.9850E-03 dsl=   1.8465E-03 dsi=   0.0000E+00

== GAS HYDRATE + MULTIPHASE FLOW ===============================================
 Step    129 Time=  6.83300E+03 Dt=  3.30000E+01 [y] snes_conv_reason:  999
  newton =   4 [     536] linear =     4 [       536] cuts =  0 [   5]
  --> max chng: dpl=   1.8084E+03 dpg=   1.7995E+03 dpa=   1.7998E+03
                dxa=   5.8752E-07  dt=   7.5002E-03 dsg=   4.1843E-03
                dsh=   2.1690E-03 dsl=   2.0153E-03 dsi=   0.0000E+00

== GAS HYDRATE + MULTIPHASE FLOW ===============================================
 Step    130 Time=  6.90000E+03 Dt=  6.70000E+01 [y] snes_conv_reason:  999
  newton =   5 [     541] linear =     5 [       541] cuts =  0 [   5]
  --> max chng: dpl=   2.9930E+03 dpg=   2.9760E+03 dpa=   2.9766E+03
                dxa=   1.1918E-06  dt=   9.8185E-03 dsg=   9.6331E-03
                dsh=   4.9974E-03 dsl=   4.6357E-03 dsi=   0.0000E+00
 Dt limited by Unknown: Val=-9.990E+02, Gov=-9.990E+02, Scale=0.33


== GAS HYDRATE + MULTIPHASE FLOW ===============================================
 Step    131 Time=  6.96600E+03 Dt=  6.60000E+01 [y] snes_conv_reason:  999
  newton =   2 [     543] linear =     2 [       543] cuts =  0 [   5]
  --> max chng: dpl=   3.4195E+03 dpg=   3.1719E+03 dpa=   3.1720E+03
                dxa=   1.1730E-06  dt=   2.8082E-02 dsg=   1.0247E-02
                dsh=   2.4028E-05 dsl=   4.9438E-03 dsi=   0.0000E+00

== GAS HYDRATE + MULTIPHASE FLOW ===============================================
 Step    132 Time=  7.00000E+03 Dt=  3.40000E+01 [y] snes_conv_reason:  999
  newton =   5 [     548] linear =     5 [       548] cuts =  0 [   5]
  --> max chng: dpl=   6.7416E+03 dpg=   6.7416E+03 dpa=   6.7420E+03
                dxa=   2.4117E-06  dt=   2.7759E-02 dsg=   7.4923E-05
                dsh=   2.3242E-04 dsl=   2.1919E-04 dsi=   0.0000E+00
 Dt limited by Unknown: Val=-9.990E+02, Gov=-9.990E+02, Scale=0.33


== GAS HYDRATE + MULTIPHASE FLOW ===============================================
 Step    133 Time=  7.10000E+03 Dt=  1.00000E+02 [y] snes_conv_reason:  999
  newton =   6 [     554] linear =     6 [       554] cuts =  0 [   5]
  --> max chng: dpl=   5.2570E+03 dpg=   5.2302E+03 dpa=   5.2310E+03
                dxa=   1.7737E-06  dt=   1.7266E-02 dsg=   1.0574E-02
                dsh=   5.4701E-03 dsl=   5.1039E-03 dsi=   0.0000E+00
 Dt limited by Unknown: Val=-9.990E+02, Gov=-9.990E+02, Scale=0.33


== GAS HYDRATE + MULTIPHASE FLOW ===============================================
 Step    134 Time=  7.20000E+03 Dt=  1.00000E+02 [y] snes_conv_reason:  999
  newton =   6 [     560] linear =     6 [       560] cuts =  0 [   5]
  --> max chng: dpl=   4.2606E+03 dpg=   3.9730E+03 dpa=   3.9738E+03
                dxa=   1.7712E-06  dt=   4.2408E-02 dsg=   1.4452E-02
                dsh=   7.4823E-03 dsl=   6.9693E-03 dsi=   0.0000E+00
 Dt limited by Unknown: Val=-9.990E+02, Gov=-9.990E+02, Scale=0.33


== GAS HYDRATE + MULTIPHASE FLOW ===============================================
 Step    135 Time=  7.30000E+03 Dt=  1.00000E+02 [y] snes_conv_reason:  999
  newton =   3 [     563] linear =     3 [       563] cuts =  0 [   5]
  --> max chng: dpl=   6.6178E+03 dpg=   6.6105E+03 dpa=   6.6111E+03
                dxa=   2.5025E-06  dt=   4.2584E-02 dsg=   8.5101E-03
                dsh=   3.5956E-05 dsl=   4.1431E-03 dsi=   0.0000E+00

[...]
  newton =   3 [    5569] linear =     3 [      5569] cuts =  0 [  35]
  --> max chng: dpl=   4.6386E+03 dpg=   4.9443E+03 dpa=   4.9429E+03
                dxa=   3.7215E-06  dt=   3.2840E-02 dsg=   3.0830E-02
                dsh=   1.0119E-04 dsl=   1.3685E-02 dsi=   0.0000E+00

== GAS HYDRATE + MULTIPHASE FLOW ===============================================
 Step   1407 Time=  1.15900E+05 Dt=  1.00000E+02 [y] snes_conv_reason:  999
  newton =   5 [    5574] linear =     5 [      5574] cuts =  0 [  35]
  --> max chng: dpl=   3.9103E+03 dpg=   1.1880E+04 dpa=   1.1878E+04
                dxa=   3.9155E-06  dt=   2.8861E-02 dsg=   7.6727E-05
                dsh=   1.4197E-02 dsl=   1.1287E-02 dsi=   0.0000E+00
 Dt limited by Unknown: Val=-9.990E+02, Gov=-9.990E+02, Scale=0.33


== GAS HYDRATE + MULTIPHASE FLOW ===============================================
 Step   1408 Time=  1.16000E+05 Dt=  1.00000E+02 [y] snes_conv_reason:  999
  newton =   4 [    5578] linear =     4 [      5578] cuts =  0 [  35]
  --> max chng: dpl=   9.1122E+03 dpg=   1.0610E+04 dpa=   1.0609E+04
                dxa=   3.4578E-06  dt=   2.5834E-02 dsg=   3.7415E-02
                dsh=   2.0840E-02 dsl=   1.6575E-02 dsi=   0.0000E+00

== GAS HYDRATE + MULTIPHASE FLOW ===============================================
 Step   1409 Time=  1.16100E+05 Dt=  1.00000E+02 [y] snes_conv_reason:  999
  newton =   6 [    5584] linear =     6 [      5584] cuts =  0 [  35]
  --> max chng: dpl=   4.1773E+03 dpg=   4.5159E+03 dpa=   4.5141E+03
                dxa=   3.4074E-06  dt=   2.3627E-02 dsg=   2.0657E-02
                dsh=   4.0017E-03 dsl=   9.2031E-03 dsi=   0.0000E+00
 Dt limited by Unknown: Val=-9.990E+02, Gov=-9.990E+02, Scale=0.33


== GAS HYDRATE + MULTIPHASE FLOW ===============================================
 Step   1410 Time=  1.16200E+05 Dt=  1.00000E+02 [y] snes_conv_reason:  999
  newton =   4 [    5588] linear =     4 [      5588] cuts =  0 [  35]
  --> max chng: dpl=   6.1480E+03 dpg=   1.3677E+04 dpa=   1.3676E+04
                dxa=   3.2220E-06  dt=   2.1736E-02 dsg=   3.5047E-02
                dsh=   1.9521E-02 dsl=   1.5526E-02 dsi=   0.0000E+00

== GAS HYDRATE + MULTIPHASE FLOW ===============================================
 Step   1411 Time=  1.16300E+05 Dt=  1.00000E+02 [y] snes_conv_reason:  999
  newton =   3 [    5591] linear =     3 [      5591] cuts =  0 [  35]
  --> max chng: dpl=   7.1406E+03 dpg=   7.8126E+03 dpa=   7.8115E+03
                dxa=   2.9206E-06  dt=   2.0125E-02 dsg=   4.1536E-02
                dsh=   7.0903E-05 dsl=   1.8408E-02 dsi=   0.0000E+00

== GAS HYDRATE + MULTIPHASE FLOW ===============================================
 Step   1412 Time=  1.16400E+05 Dt=  1.00000E+02 [y] snes_conv_reason:  999
  newton =   5 [    5596] linear =     5 [      5596] cuts =  0 [  35]
  --> max chng: dpl=   4.1397E+03 dpg=   9.9416E+03 dpa=   9.9397E+03
                dxa=   4.0186E-06  dt=   1.8916E-02 dsg=   1.0443E-04
                dsh=   1.6910E-02 dsl=   1.3436E-02 dsi=   0.0000E+00
 Dt limited by Unknown: Val=-9.990E+02, Gov=-9.990E+02, Scale=0.33


== GAS HYDRATE + MULTIPHASE FLOW ===============================================
 Step   1413 Time=  1.16500E+05 Dt=  1.00000E+02 [y] snes_conv_reason:  999
  newton =   4 [    5600] linear =     4 [      5600] cuts =  0 [  35]
  --> max chng: dpl=   8.8331E+03 dpg=   9.8005E+03 dpa=   9.7994E+03
                dxa=   2.8621E-06  dt=   1.7523E-02 dsg=   4.4391E-02
                dsh=   2.4725E-02 dsl=   1.9666E-02 dsi=   0.0000E+00

== GAS HYDRATE + MULTIPHASE FLOW ===============================================
 Step   1414 Time=  1.16600E+05 Dt=  1.00000E+02 [y] snes_conv_reason:  999
  newton =   6 [    5606] linear =     6 [      5606] cuts =  0 [  35]
  --> max chng: dpl=   3.7304E+03 dpg=   6.8624E+03 dpa=   6.8604E+03
                dxa=   3.8200E-06  dt=   1.9162E-02 dsg=   9.3448E-03
                dsh=   1.1768E-02 dsl=   9.3380E-03 dsi=   0.0000E+00
 Dt limited by Unknown: Val=-9.990E+02, Gov=-9.990E+02, Scale=0.33


== GAS HYDRATE + MULTIPHASE FLOW ===============================================
 Step   1415 Time=  1.16700E+05 Dt=  1.00000E+02 [y] snes_conv_reason:  999
  newton =   4 [    5610] linear =     4 [      5610] cuts =  0 [  35]
  --> max chng: dpl=   7.8425E+03 dpg=   1.0357E+04 dpa=   1.0356E+04
                dxa=   2.6668E-06  dt=   1.5633E-02 dsg=   4.3453E-02
                dsh=   2.4194E-02 dsl=   1.9258E-02 dsi=   0.0000E+00

== GAS HYDRATE + MULTIPHASE FLOW ===============================================
 Step   1416 Time=  1.16800E+05 Dt=  1.00000E+02 [y] snes_conv_reason:  999
  newton =   6 [    5616] linear =     6 [      5616] cuts =  0 [  35]
  --> max chng: dpl=   3.3010E+03 dpg=   5.0228E+03 dpa=   5.0210E+03
                dxa=   3.4300E-06  dt=   1.7558E-02 dsg=   1.9672E-02
                dsh=   7.1755E-03 dsl=   8.7763E-03 dsi=   0.0000E+00
 Dt limited by Unknown: Val=-9.990E+02, Gov=-9.990E+02, Scale=0.33


== GAS HYDRATE + MULTIPHASE FLOW ===============================================
 Step   1417 Time=  1.16900E+05 Dt=  1.00000E+02 [y] snes_conv_reason:  999
  newton =   4 [    5620] linear =     4 [      5620] cuts =  0 [  35]
  --> max chng: dpl=   6.1474E+03 dpg=   1.1269E+04 dpa=   1.1268E+04
                dxa=   2.6376E-06  dt=   1.4190E-02 dsg=   4.1903E-02
                dsh=   2.3323E-02 dsl=   1.8579E-02 dsi=   0.0000E+00

== GAS HYDRATE + MULTIPHASE FLOW ===============================================
 Step   1418 Time=  1.17000E+05 Dt=  1.00000E+02 [y] snes_conv_reason:  999
  newton =   6 [    5626] linear =     6 [      5626] cuts =  0 [  35]
  --> max chng: dpl=   2.9564E+03 dpg=   2.9636E+03 dpa=   2.9630E+03
                dxa=   2.9339E-06  dt=   1.5613E-02 dsg=   2.9568E-02
                dsh=   2.9911E-03 dsl=   1.3161E-02 dsi=   0.0000E+00
 Dt limited by Unknown: Val=-9.990E+02, Gov=-9.990E+02, Scale=0.33


== GAS HYDRATE + MULTIPHASE FLOW ===============================================
 Step   1419 Time=  1.17100E+05 Dt=  1.00000E+02 [y] snes_conv_reason:  999
  newton =   4 [    5630] linear =     4 [      5630] cuts =  0 [  35]
  --> max chng: dpl=   3.9728E+03 dpg=   1.2498E+04 dpa=   1.2497E+04
                dxa=   2.9414E-06  dt=   1.3103E-02 dsg=   3.9491E-02
                dsh=   2.1973E-02 dsl=   1.7518E-02 dsi=   0.0000E+00

== GAS HYDRATE + MULTIPHASE FLOW ===============================================
 Step   1420 Time=  1.17200E+05 Dt=  1.00000E+02 [y] snes_conv_reason:  999
  newton =   2 [    5632] linear =     2 [      5632] cuts =  0 [  35]
  --> max chng: dpl=   2.6686E+03 dpg=   2.6761E+03 dpa=   2.6754E+03
                dxa=   2.4971E-06  dt=   1.2614E-02 dsg=   3.9552E-02
                dsh=   4.4599E-05 dsl=   1.7586E-02 dsi=   0.0000E+00

== GAS HYDRATE + MULTIPHASE FLOW ===============================================
 Step   1421 Time=  1.17300E+05 Dt=  1.00000E+02 [y] snes_conv_reason:  999
  newton =   5 [    5637] linear =     5 [      5637] cuts =  0 [  35]
  --> max chng: dpl=   2.3145E+03 dpg=   1.2063E+04 dpa=   1.2062E+04
                dxa=   3.4957E-06  dt=   1.4148E-02 dsg=   8.1250E-05
                dsh=   2.0374E-02 dsl=   1.6254E-02 dsi=   0.0000E+00
 Dt limited by Unknown: Val=-9.990E+02, Gov=-9.990E+02, Scale=0.33


== GAS HYDRATE + MULTIPHASE FLOW ===============================================
 Step   1422 Time=  1.17400E+05 Dt=  1.00000E+02 [y] snes_conv_reason:  999
  newton =   4 [    5641] linear =     4 [      5641] cuts =  0 [  35]
  --> max chng: dpl=   6.4209E+03 dpg=   7.1893E+03 dpa=   7.1885E+03
                dxa=   2.6190E-06  dt=   1.0994E-02 dsg=   4.7619E-02
                dsh=   2.6477E-02 dsl=   2.1142E-02 dsi=   0.0000E+00

== GAS HYDRATE + MULTIPHASE FLOW ===============================================
 Step   1423 Time=  1.17500E+05 Dt=  1.00000E+02 [y] snes_conv_reason:  999
  newton =   6 [    5647] linear =     6 [      5647] cuts =  0 [  35]
  --> max chng: dpl=   5.8136E+03 dpg=   5.8090E+03 dpa=   5.8108E+03
                dxa=   3.4241E-06  dt=   1.7751E-02 dsg=   2.7500E-04
                dsh=   1.7286E-02 dsl=   1.3798E-02 dsi=   0.0000E+00
 Dt limited by Unknown: Val=-9.990E+02, Gov=-9.990E+02, Scale=0.33


== GAS HYDRATE + MULTIPHASE FLOW ===============================================
 Step   1424 Time=  1.17600E+05 Dt=  1.00000E+02 [y] snes_conv_reason:  999
  newton =   4 [    5651] linear =     4 [      5651] cuts =  0 [  35]
  --> max chng: dpl=   6.1021E+03 dpg=   7.0211E+03 dpa=   7.0203E+03
                dxa=   2.6261E-06  dt=   1.0960E-02 dsg=   4.5301E-02
                dsh=   2.5170E-02 dsl=   2.0131E-02 dsi=   0.0000E+00

== GAS HYDRATE + MULTIPHASE FLOW ===============================================
 Step   1425 Time=  1.17700E+05 Dt=  1.00000E+02 [y] snes_conv_reason:  999
  newton =   6 [    5657] linear =     6 [      5657] cuts =  0 [  35]
  --> max chng: dpl=   5.5285E+03 dpg=   5.4561E+03 dpa=   5.4578E+03
                dxa=   3.1802E-06  dt=   1.6661E-02 dsg=   8.2160E-03
                dsh=   1.2475E-02 dsl=   9.9597E-03 dsi=   0.0000E+00
 Dt limited by Unknown: Val=-9.990E+02, Gov=-9.990E+02, Scale=0.33


== GAS HYDRATE + MULTIPHASE FLOW ===============================================
 Step   1426 Time=  1.17800E+05 Dt=  1.00000E+02 [y] snes_conv_reason:  999
  newton =   4 [    5661] linear =     4 [      5661] cuts =  0 [  35]
  --> max chng: dpl=   5.1338E+03 dpg=   7.3269E+03 dpa=   7.3262E+03
                dxa=   2.6161E-06  dt=   1.0836E-02 dsg=   4.3006E-02
                dsh=   2.3875E-02 dsl=   1.9130E-02 dsi=   0.0000E+00

== GAS HYDRATE + MULTIPHASE FLOW ===============================================
 Step   1427 Time=  1.17900E+05 Dt=  1.00000E+02 [y] snes_conv_reason:  999
  newton =   6 [    5667] linear =     6 [      5667] cuts =  0 [  35]
  --> max chng: dpl=   4.3473E+03 dpg=   4.2998E+03 dpa=   4.3014E+03
                dxa=   2.7177E-06  dt=   1.4770E-02 dsg=   1.9209E-02
                dsh=   6.8892E-03 dsl=   8.6088E-03 dsi=   0.0000E+00
 Dt limited by Unknown: Val=-9.990E+02, Gov=-9.990E+02, Scale=0.33


== GAS HYDRATE + MULTIPHASE FLOW ===============================================
 Step   1428 Time=  1.18000E+05 Dt=  1.00000E+02 [y] snes_conv_reason:  999
  newton =   4 [    5671] linear =     4 [      5671] cuts =  0 [  35]
  --> max chng: dpl=   3.2242E+03 dpg=   8.4986E+03 dpa=   8.4978E+03
                dxa=   2.5881E-06  dt=   1.0686E-02 dsg=   3.9753E-02
                dsh=   2.2053E-02 dsl=   1.7700E-02 dsi=   0.0000E+00

== GAS HYDRATE + MULTIPHASE FLOW ===============================================
 Step   1429 Time=  1.18100E+05 Dt=  1.00000E+02 [y] snes_conv_reason:  999
  newton =   5 [    5676] linear =     5 [      5676] cuts =  0 [  35]
  --> max chng: dpl=   2.0282E+03 dpg=   2.0239E+03 dpa=   2.0251E+03
                dxa=   2.5412E-06  dt=   1.2067E-02 dsg=   3.2547E-02
                dsh=   9.3926E-04 dsl=   1.4545E-02 dsi=   0.0000E+00
 Dt limited by Unknown: Val=-9.990E+02, Gov=-9.990E+02, Scale=0.33


== GAS HYDRATE + MULTIPHASE FLOW ===============================================
 Step   1430 Time=  1.18200E+05 Dt=  1.00000E+02 [y] snes_conv_reason:  999
  newton =   4 [    5680] linear =     4 [      5680] cuts =  0 [  35]
  --> max chng: dpl=   3.6282E+03 dpg=   1.1301E+04 dpa=   1.1300E+04
                dxa=   2.6685E-06  dt=   1.1277E-02 dsg=   3.3895E-02
                dsh=   1.8796E-02 dsl=   1.5099E-02 dsi=   0.0000E+00

== GAS HYDRATE + MULTIPHASE FLOW ===============================================
 Step   1431 Time=  1.18300E+05 Dt=  1.00000E+02 [y] snes_conv_reason:  999
  newton =   4 [    5684] linear =     4 [      5684] cuts =  0 [  35]
  --> max chng: dpl=   5.5050E+03 dpg=   6.1784E+03 dpa=   6.1778E+03
                dxa=   2.5009E-06  dt=   9.8445E-03 dsg=   4.1868E-02
                dsh=   2.3210E-02 dsl=   1.8658E-02 dsi=   0.0000E+00

== GAS HYDRATE + MULTIPHASE FLOW ===============================================
 Step   1432 Time=  1.18400E+05 Dt=  1.00000E+02 [y] snes_conv_reason:  999
  newton =   6 [    5690] linear =     6 [      5690] cuts =  0 [  35]
  --> max chng: dpl=   5.2257E+03 dpg=   5.1577E+03 dpa=   5.1593E+03
                dxa=   2.9648E-06  dt=   1.5739E-02 dsg=   7.3118E-03
                dsh=   1.0144E-02 dsl=   8.1306E-03 dsi=   0.0000E+00
 Dt limited by Unknown: Val=-9.990E+02, Gov=-9.990E+02, Scale=0.33


== GAS HYDRATE + MULTIPHASE FLOW ===============================================
 Step   1433 Time=  1.18500E+05 Dt=  1.00000E+02 [y] snes_conv_reason:  999
  newton =   4 [    5694] linear =     4 [      5694] cuts =  0 [  35]
  --> max chng: dpl=   4.6813E+03 dpg=   7.8245E+03 dpa=   7.8237E+03
                dxa=   2.3216E-06  dt=   1.0128E-02 dsg=   3.4647E-02
                dsh=   1.9202E-02 dsl=   1.5446E-02 dsi=   0.0000E+00

== GAS HYDRATE + MULTIPHASE FLOW ===============================================
 Step   1434 Time=  1.18600E+05 Dt=  1.00000E+02 [y] snes_conv_reason:  999
  newton =   3 [    5697] linear =     3 [      5697] cuts =  0 [  35]
  --> max chng: dpl=   3.6287E+03 dpg=   3.2048E+03 dpa=   3.2048E+03
                dxa=   2.2635E-06  dt=   1.0020E-02 dsg=   3.1795E-02
                dsh=   3.5340E-05 dsl=   1.4202E-02 dsi=   0.0000E+00

== GAS HYDRATE + MULTIPHASE FLOW ===============================================
 Step   1435 Time=  1.18700E+05 Dt=  1.00000E+02 [y] snes_conv_reason:  999
  newton =   5 [    5702] linear =     5 [      5702] cuts =  0 [  35]
  --> max chng: dpl=   3.6248E+03 dpg=   8.7789E+03 dpa=   8.7776E+03
                dxa=   3.0299E-06  dt=   1.2868E-02 dsg=   9.5032E-05
                dsh=   1.3637E-02 dsl=   1.0960E-02 dsi=   0.0000E+00
 Dt limited by Unknown: Val=-9.990E+02, Gov=-9.990E+02, Scale=0.33


== GAS HYDRATE + MULTIPHASE FLOW ===============================================
 Step   1436 Time=  1.18800E+05 Dt=  1.00000E+02 [y] snes_conv_reason:  999
  newton =   4 [    5706] linear =     4 [      5706] cuts =  0 [  35]
  --> max chng: dpl=   5.2172E+03 dpg=   6.8005E+03 dpa=   6.7998E+03
                dxa=   2.1858E-06  dt=   9.5837E-03 dsg=   3.2894E-02
                dsh=   1.8223E-02 dsl=   1.4671E-02 dsi=   0.0000E+00

== GAS HYDRATE + MULTIPHASE FLOW ===============================================
 Step   1437 Time=  1.18900E+05 Dt=  1.00000E+02 [y] snes_conv_reason:  999
  newton =   3 [    5709] linear =     3 [      5709] cuts =  0 [  35]
  --> max chng: dpl=   3.6271E+03 dpg=   3.0340E+03 dpa=   3.0341E+03
                dxa=   2.1148E-06  dt=   1.0433E-02 dsg=   2.7244E-02
                dsh=   3.4288E-05 dsl=   1.2183E-02 dsi=   0.0000E+00

== GAS HYDRATE + MULTIPHASE FLOW ===============================================
 Step   1438 Time=  1.19000E+05 Dt=  1.00000E+02 [y] snes_conv_reason:  999
  newton =   5 [    5714] linear =     5 [      5714] cuts =  0 [  35]
  --> max chng: dpl=   3.6263E+03 dpg=   9.1707E+03 dpa=   9.1695E+03
                dxa=   2.9107E-06  dt=   1.1717E-02 dsg=   8.5680E-05
                dsh=   1.2321E-02 dsl=   9.9083E-03 dsi=   0.0000E+00
 Dt limited by Unknown: Val=-9.990E+02, Gov=-9.990E+02, Scale=0.33


== GAS HYDRATE + MULTIPHASE FLOW ===============================================
 Step   1439 Time=  1.19100E+05 Dt=  1.00000E+02 [y] snes_conv_reason:  999
  newton =   4 [    5718] linear =     4 [      5718] cuts =  0 [  35]
  --> max chng: dpl=   4.8432E+03 dpg=   6.8595E+03 dpa=   6.8588E+03
                dxa=   2.0568E-06  dt=   9.2290E-03 dsg=   2.9110E-02
                dsh=   1.6124E-02 dsl=   1.2986E-02 dsi=   0.0000E+00

== GAS HYDRATE + MULTIPHASE FLOW ===============================================
 Step   1440 Time=  1.19200E+05 Dt=  1.00000E+02 [y] snes_conv_reason:  999
  newton =   3 [    5721] linear =     3 [      5721] cuts =  0 [  35]
  --> max chng: dpl=   4.3999E+03 dpg=   4.9432E+03 dpa=   4.9427E+03
                dxa=   2.1157E-06  dt=   8.7365E-03 dsg=   3.3340E-02
                dsh=   3.1702E-05 dsl=   1.4878E-02 dsi=   0.0000E+00

== GAS HYDRATE + MULTIPHASE FLOW ===============================================
 Step   1441 Time=  1.19300E+05 Dt=  1.00000E+02 [y] snes_conv_reason:  999
  newton =   5 [    5726] linear =     5 [      5726] cuts =  0 [  35]
  --> max chng: dpl=   5.9766E+03 dpg=   5.9747E+03 dpa=   5.9762E+03
                dxa=   2.9231E-06  dt=   1.4345E-02 dsg=   1.2789E-04
                dsh=   9.3923E-03 dsl=   7.5508E-03 dsi=   0.0000E+00
 Dt limited by Unknown: Val=-9.990E+02, Gov=-9.990E+02, Scale=0.33


== GAS HYDRATE + MULTIPHASE FLOW ===============================================
 Step   1442 Time=  1.19400E+05 Dt=  1.00000E+02 [y] snes_conv_reason:  999
  newton =   4 [    5730] linear =     4 [      5730] cuts =  0 [  35]
  --> max chng: dpl=   3.3858E+03 dpg=   6.7962E+03 dpa=   6.7955E+03
                dxa=   2.0343E-06  dt=   8.9274E-03 dsg=   2.5620E-02
                dsh=   1.4188E-02 dsl=   1.1432E-02 dsi=   0.0000E+00

== GAS HYDRATE + MULTIPHASE FLOW ===============================================
 Step   1443 Time=  1.19500E+05 Dt=  1.00000E+02 [y] snes_conv_reason:  999
  newton =   4 [    5734] linear =     4 [      5734] cuts =  0 [  35]
  --> max chng: dpl=   4.1545E+03 dpg=   4.6525E+03 dpa=   4.6520E+03
                dxa=   2.0876E-06  dt=   8.4318E-03 dsg=   3.0952E-02
                dsh=   1.7130E-02 dsl=   1.3822E-02 dsi=   0.0000E+00

== GAS HYDRATE + MULTIPHASE FLOW ===============================================
 Step   1444 Time=  1.19600E+05 Dt=  1.00000E+02 [y] snes_conv_reason:  999
  newton =   6 [    5740] linear =     6 [      5740] cuts =  0 [  35]
  --> max chng: dpl=   4.5002E+03 dpg=   4.4434E+03 dpa=   4.4447E+03
                dxa=   2.2750E-06  dt=   1.2094E-02 dsg=   1.1304E-02
                dsh=   3.7801E-03 dsl=   5.1029E-03 dsi=   0.0000E+00
 Dt limited by Unknown: Val=-9.990E+02, Gov=-9.990E+02, Scale=0.33


== GAS HYDRATE + MULTIPHASE FLOW ===============================================
 Step   1445 Time=  1.19700E+05 Dt=  1.00000E+02 [y] snes_conv_reason:  999
  newton =   4 [    5744] linear =     4 [      5744] cuts =  0 [  35]
  --> max chng: dpl=   1.1164E+03 dpg=   8.1228E+03 dpa=   8.1220E+03
                dxa=   1.9902E-06  dt=   8.6421E-03 dsg=   2.1445E-02
                dsh=   1.1874E-02 dsl=   9.5713E-03 dsi=   0.0000E+00

== GAS HYDRATE + MULTIPHASE FLOW ===============================================
 Step   1446 Time=  1.19800E+05 Dt=  1.00000E+02 [y] snes_conv_reason:  999
  newton =   4 [    5748] linear =     4 [      5748] cuts =  0 [  35]
  --> max chng: dpl=   3.8079E+03 dpg=   4.7322E+03 dpa=   4.7318E+03
                dxa=   2.0357E-06  dt=   8.1491E-03 dsg=   2.7692E-02
                dsh=   1.5317E-02 dsl=   1.2374E-02 dsi=   0.0000E+00

== GAS HYDRATE + MULTIPHASE FLOW ===============================================
 Step   1447 Time=  1.19900E+05 Dt=  1.00000E+02 [y] snes_conv_reason:  999
  newton =   3 [    5751] linear =     3 [      5751] cuts =  0 [  35]
  --> max chng: dpl=   2.3830E+03 dpg=   2.8540E+03 dpa=   2.8534E+03
                dxa=   2.0557E-06  dt=   7.8755E-03 dsg=   2.8812E-02
                dsh=   2.9201E-05 dsl=   1.2885E-02 dsi=   0.0000E+00

== GAS HYDRATE + MULTIPHASE FLOW ===============================================
 Step   1448 Time=  1.20000E+05 Dt=  1.00000E+02 [y] snes_conv_reason:  999
  newton =   5 [    5756] linear =     5 [      5756] cuts =  0 [  35]
  --> max chng: dpl=   5.5563E+03 dpg=   5.5545E+03 dpa=   5.5558E+03
                dxa=   2.6415E-06  dt=   1.2347E-02 dsg=   1.2178E-04
                dsh=   8.2706E-03 dsl=   6.6654E-03 dsi=   0.0000E+00
 Dt limited by Unknown: Val=-9.990E+02, Gov=-9.990E+02, Scale=0.33


 Wall Clock Time:  1.0560E+02 [sec]   1.7601E+00 [min]   2.9334E-02 [hr]
