
=================
  PFLOTRAN v4.0
=================


 *DXYZ 
  dx  
  1.0000E+00
  dy  
  1.0000E+00
  dz  
  1.0000E+00  1.0000E+00  1.0000E+00  1.0000E+00  1.0000E+00  1.0000E+00  1.0000E+00  1.0000E+00  1.0000E+00  1.0000E+00
  1.0000E+00  1.0000E+00  1.0000E+00  1.0000E+00  1.0000E+00  1.0000E+00  1.0000E+00  1.0000E+00  1.0000E+00  1.0000E+00
  1.0000E+00  1.0000E+00  1.0000E+00  1.0000E+00  1.0000E+00  1.0000E+00  1.0000E+00  1.0000E+00  1.0000E+00  1.0000E+00
  1.0000E+00  1.0000E+00  1.0000E+00  1.0000E+00  1.0000E+00  1.0000E+00  1.0000E+00  1.0000E+00  1.0000E+00  1.0000E+00
  1.0000E+00  1.0000E+00  1.0000E+00  1.0000E+00  1.0000E+00  1.0000E+00  1.0000E+00  1.0000E+00  1.0000E+00  1.0000E+00
  1.0000E+00  1.0000E+00  1.0000E+00  1.0000E+00  1.0000E+00  1.0000E+00  1.0000E+00  1.0000E+00  1.0000E+00  1.0000E+00
  1.0000E+00  1.0000E+00  1.0000E+00  1.0000E+00  1.0000E+00  1.0000E+00  1.0000E+00  1.0000E+00  1.0000E+00  1.0000E+00
  1.0000E+00  1.0000E+00  1.0000E+00  1.0000E+00  1.0000E+00  1.0000E+00  1.0000E+00  1.0000E+00  1.0000E+00  1.0000E+00
  1.0000E+00  1.0000E+00  1.0000E+00  1.0000E+00  1.0000E+00  1.0000E+00  1.0000E+00  1.0000E+00  1.0000E+00  1.0000E+00
  1.0000E+00  1.0000E+00  1.0000E+00  1.0000E+00  1.0000E+00  1.0000E+00  1.0000E+00  1.0000E+00  1.0000E+00  1.0000E+00
  1.0000E+00  1.0000E+00  1.0000E+00  1.0000E+00  1.0000E+00  1.0000E+00  1.0000E+00  1.0000E+00  1.0000E+00  1.0000E+00
  1.0000E+00  1.0000E+00  1.0000E+00  1.0000E+00  1.0000E+00  1.0000E+00  1.0000E+00  1.0000E+00  1.0000E+00  1.0000E+00
  1.0000E+00  1.0000E+00  1.0000E+00  1.0000E+00  1.0000E+00  1.0000E+00  1.0000E+00  1.0000E+00  1.0000E+00  1.0000E+00
  1.0000E+00  1.0000E+00  1.0000E+00  1.0000E+00  1.0000E+00  1.0000E+00  1.0000E+00  1.0000E+00  1.0000E+00  1.0000E+00
  1.0000E+00  1.0000E+00  1.0000E+00  1.0000E+00  1.0000E+00  1.0000E+00  1.0000E+00  1.0000E+00  1.0000E+00  1.0000E+00
  1.0000E+00  1.0000E+00  1.0000E+00  1.0000E+00  1.0000E+00  1.0000E+00  1.0000E+00  1.0000E+00  1.0000E+00  1.0000E+00
  1.0000E+00  1.0000E+00  1.0000E+00  1.0000E+00  1.0000E+00  1.0000E+00  1.0000E+00  1.0000E+00  1.0000E+00  1.0000E+00
  1.0000E+00  1.0000E+00  1.0000E+00  1.0000E+00  1.0000E+00  1.0000E+00  1.0000E+00  1.0000E+00  1.0000E+00  1.0000E+00
  1.0000E+00  1.0000E+00  1.0000E+00  1.0000E+00  1.0000E+00  1.0000E+00  1.0000E+00  1.0000E+00  1.0000E+00  1.0000E+00
  1.0000E+00  1.0000E+00  1.0000E+00  1.0000E+00  1.0000E+00  1.0000E+00  1.0000E+00  1.0000E+00  1.0000E+00  1.0000E+00
  1.0000E+00  1.0000E+00  1.0000E+00  1.0000E+00  1.0000E+00  1.0000E+00  1.0000E+00  1.0000E+00  1.0000E+00  1.0000E+00
  1.0000E+00  1.0000E+00  1.0000E+00  1.0000E+00  1.0000E+00  1.0000E+00  1.0000E+00  1.0000E+00  1.0000E+00  1.0000E+00
  1.0000E+00  1.0000E+00  1.0000E+00  1.0000E+00  1.0000E+00  1.0000E+00  1.0000E+00  1.0000E+00  1.0000E+00  1.0000E+00
  1.0000E+00  1.0000E+00  1.0000E+00  1.0000E+00  1.0000E+00  1.0000E+00  1.0000E+00  1.0000E+00  1.0000E+00  1.0000E+00
  1.0000E+00  1.0000E+00  1.0000E+00  1.0000E+00  1.0000E+00  1.0000E+00  1.0000E+00  1.0000E+00  1.0000E+00  1.0000E+00
  1.0000E+00  1.0000E+00  1.0000E+00  1.0000E+00  1.0000E+00  1.0000E+00  1.0000E+00  1.0000E+00  1.0000E+00  1.0000E+00
  1.0000E+00  1.0000E+00  1.0000E+00  1.0000E+00  1.0000E+00  1.0000E+00  1.0000E+00  1.0000E+00  1.0000E+00  1.0000E+00
  1.0000E+00  1.0000E+00  1.0000E+00  1.0000E+00  1.0000E+00  1.0000E+00  1.0000E+00  1.0000E+00  1.0000E+00  1.0000E+00
  1.0000E+00  1.0000E+00  1.0000E+00  1.0000E+00  1.0000E+00  1.0000E+00  1.0000E+00  1.0000E+00  1.0000E+00  1.0000E+00
  1.0000E+00  1.0000E+00  1.0000E+00  1.0000E+00  1.0000E+00  1.0000E+00  1.0000E+00  1.0000E+00  1.0000E+00  1.0000E+00
  1.0000E+00  1.0000E+00  1.0000E+00  1.0000E+00  1.0000E+00  1.0000E+00  1.0000E+00  1.0000E+00  1.0000E+00  1.0000E+00
  1.0000E+00  1.0000E+00  1.0000E+00  1.0000E+00  1.0000E+00  1.0000E+00  1.0000E+00  1.0000E+00  1.0000E+00  1.0000E+00
  1.0000E+00  1.0000E+00  1.0000E+00  1.0000E+00  1.0000E+00  1.0000E+00  1.0000E+00  1.0000E+00  1.0000E+00  1.0000E+00
  1.0000E+00  1.0000E+00  1.0000E+00  1.0000E+00  1.0000E+00  1.0000E+00  1.0000E+00  1.0000E+00  1.0000E+00  1.0000E+00
  1.0000E+00  1.0000E+00  1.0000E+00  1.0000E+00  1.0000E+00  1.0000E+00  1.0000E+00  1.0000E+00  1.0000E+00  1.0000E+00
  1.0000E+00  1.0000E+00  1.0000E+00  1.0000E+00  1.0000E+00  1.0000E+00  1.0000E+00  1.0000E+00  1.0000E+00  1.0000E+00
  1.0000E+00  1.0000E+00  1.0000E+00  1.0000E+00  1.0000E+00  1.0000E+00  1.0000E+00  1.0000E+00  1.0000E+00  1.0000E+00
  1.0000E+00  1.0000E+00  1.0000E+00  1.0000E+00  1.0000E+00  1.0000E+00  1.0000E+00  1.0000E+00  1.0000E+00  1.0000E+00
  1.0000E+00  1.0000E+00  1.0000E+00  1.0000E+00  1.0000E+00  1.0000E+00  1.0000E+00  1.0000E+00  1.0000E+00  1.0000E+00
  1.0000E+00  1.0000E+00  1.0000E+00  1.0000E+00  1.0000E+00  1.0000E+00  1.0000E+00  1.0000E+00  1.0000E+00  1.0000E+00
  1.0000E+00  1.0000E+00  1.0000E+00  1.0000E+00  1.0000E+00  1.0000E+00  1.0000E+00  1.0000E+00  1.0000E+00  1.0000E+00
  1.0000E+00  1.0000E+00  1.0000E+00  1.0000E+00  1.0000E+00  1.0000E+00  1.0000E+00  1.0000E+00  1.0000E+00  1.0000E+00
  1.0000E+00  1.0000E+00  1.0000E+00  1.0000E+00  1.0000E+00  1.0000E+00  1.0000E+00  1.0000E+00  1.0000E+00  1.0000E+00
  1.0000E+00  1.0000E+00  1.0000E+00  1.0000E+00  1.0000E+00  1.0000E+00  1.0000E+00  1.0000E+00  1.0000E+00  1.0000E+00
  1.0000E+00  1.0000E+00  1.0000E+00  1.0000E+00  1.0000E+00  1.0000E+00  1.0000E+00  1.0000E+00  1.0000E+00  1.0000E+00
  1.0000E+00  1.0000E+00  1.0000E+00  1.0000E+00  1.0000E+00  1.0000E+00  1.0000E+00  1.0000E+00  1.0000E+00  1.0000E+00
  1.0000E+00  1.0000E+00  1.0000E+00  1.0000E+00  1.0000E+00  1.0000E+00  1.0000E+00  1.0000E+00  1.0000E+00  1.0000E+00
  1.0000E+00  1.0000E+00  1.0000E+00  1.0000E+00  1.0000E+00  1.0000E+00  1.0000E+00  1.0000E+00  1.0000E+00  1.0000E+00
  1.0000E+00  1.0000E+00  1.0000E+00  1.0000E+00  1.0000E+00  1.0000E+00  1.0000E+00  1.0000E+00  1.0000E+00  1.0000E+00
  1.0000E+00  1.0000E+00  1.0000E+00  1.0000E+00  1.0000E+00  1.0000E+00  1.0000E+00  1.0000E+00  1.0000E+00  1.0000E+00
  1.0000E+00  1.0000E+00  1.0000E+00  1.0000E+00  1.0000E+00  1.0000E+00  1.0000E+00  1.0000E+00  1.0000E+00  1.0000E+00
  1.0000E+00  1.0000E+00  1.0000E+00  1.0000E+00  1.0000E+00  1.0000E+00  1.0000E+00  1.0000E+00  1.0000E+00  1.0000E+00
  1.0000E+00  1.0000E+00  1.0000E+00  1.0000E+00  1.0000E+00  1.0000E+00  1.0000E+00  1.0000E+00  1.0000E+00  1.0000E+00
  1.0000E+00  1.0000E+00  1.0000E+00  1.0000E+00  1.0000E+00  1.0000E+00  1.0000E+00  1.0000E+00  1.0000E+00  1.0000E+00
  1.0000E+00  1.0000E+00  1.0000E+00  1.0000E+00  1.0000E+00  1.0000E+00  1.0000E+00  1.0000E+00  1.0000E+00  1.0000E+00
  1.0000E+00  1.0000E+00  1.0000E+00  1.0000E+00  1.0000E+00  1.0000E+00  1.0000E+00  1.0000E+00  1.0000E+00  1.0000E+00
  1.0000E+00  1.0000E+00  1.0000E+00  1.0000E+00  1.0000E+00  1.0000E+00  1.0000E+00  1.0000E+00  1.0000E+00  1.0000E+00
  1.0000E+00  1.0000E+00  1.0000E+00  1.0000E+00  1.0000E+00  1.0000E+00  1.0000E+00  1.0000E+00  1.0000E+00  1.0000E+00
  1.0000E+00  1.0000E+00  1.0000E+00  1.0000E+00  1.0000E+00  1.0000E+00  1.0000E+00  1.0000E+00  1.0000E+00  1.0000E+00
  1.0000E+00  1.0000E+00  1.0000E+00  1.0000E+00  1.0000E+00  1.0000E+00  1.0000E+00  1.0000E+00  1.0000E+00  1.0000E+00
  1.0000E+00  1.0000E+00  1.0000E+00  1.0000E+00  1.0000E+00  1.0000E+00  1.0000E+00  1.0000E+00  1.0000E+00  1.0000E+00
  1.0000E+00  1.0000E+00  1.0000E+00  1.0000E+00  1.0000E+00  1.0000E+00  1.0000E+00  1.0000E+00  1.0000E+00  1.0000E+00
  1.0000E+00  1.0000E+00  1.0000E+00  1.0000E+00  1.0000E+00  1.0000E+00  1.0000E+00  1.0000E+00  1.0000E+00  1.0000E+00
  1.0000E+00  1.0000E+00  1.0000E+00  1.0000E+00  1.0000E+00  1.0000E+00  1.0000E+00  1.0000E+00  1.0000E+00  1.0000E+00
  1.0000E+00  1.0000E+00  1.0000E+00  1.0000E+00  1.0000E+00  1.0000E+00  1.0000E+00  1.0000E+00  1.0000E+00  1.0000E+00
  1.0000E+00  1.0000E+00  1.0000E+00  1.0000E+00  1.0000E+00  1.0000E+00  1.0000E+00  1.0000E+00  1.0000E+00  1.0000E+00
  1.0000E+00  1.0000E+00  1.0000E+00  1.0000E+00  1.0000E+00  1.0000E+00  1.0000E+00  1.0000E+00  1.0000E+00  1.0000E+00
  1.0000E+00  1.0000E+00  1.0000E+00  1.0000E+00  1.0000E+00  1.0000E+00  1.0000E+00  1.0000E+00  1.0000E+00  1.0000E+00
  1.0000E+00  1.0000E+00  1.0000E+00  1.0000E+00  1.0000E+00  1.0000E+00  1.0000E+00  1.0000E+00  1.0000E+00  1.0000E+00
  1.0000E+00  1.0000E+00  1.0000E+00  1.0000E+00  1.0000E+00  1.0000E+00  1.0000E+00  1.0000E+00  1.0000E+00  1.0000E+00
  1.0000E+00  1.0000E+00  1.0000E+00  1.0000E+00  1.0000E+00  1.0000E+00  1.0000E+00  1.0000E+00  1.0000E+00  1.0000E+00
  1.0000E+00  1.0000E+00  1.0000E+00  1.0000E+00  1.0000E+00  1.0000E+00  1.0000E+00  1.0000E+00  1.0000E+00  1.0000E+00
  1.0000E+00  1.0000E+00  1.0000E+00  1.0000E+00  1.0000E+00  1.0000E+00  1.0000E+00  1.0000E+00  1.0000E+00  1.0000E+00
  1.0000E+00  1.0000E+00  1.0000E+00  1.0000E+00  1.0000E+00  1.0000E+00  1.0000E+00  1.0000E+00  1.0000E+00  1.0000E+00
  1.0000E+00  1.0000E+00  1.0000E+00  1.0000E+00  1.0000E+00  1.0000E+00  1.0000E+00  1.0000E+00  1.0000E+00  1.0000E+00
  1.0000E+00  1.0000E+00  1.0000E+00  1.0000E+00  1.0000E+00  1.0000E+00  1.0000E+00  1.0000E+00  1.0000E+00  1.0000E+00
  1.0000E+00  1.0000E+00  1.0000E+00  1.0000E+00  1.0000E+00  1.0000E+00  1.0000E+00  1.0000E+00  1.0000E+00  1.0000E+00
  1.0000E+00  1.0000E+00  1.0000E+00  1.0000E+00  1.0000E+00  1.0000E+00  1.0000E+00  1.0000E+00  1.0000E+00  1.0000E+00
  1.0000E+00  1.0000E+00  1.0000E+00  1.0000E+00  1.0000E+00  1.0000E+00  1.0000E+00  1.0000E+00  1.0000E+00  1.0000E+00
  1.0000E+00  1.0000E+00  1.0000E+00  1.0000E+00  1.0000E+00  1.0000E+00  1.0000E+00  1.0000E+00  1.0000E+00  1.0000E+00
  1.0000E+00  1.0000E+00  1.0000E+00  1.0000E+00  1.0000E+00  1.0000E+00  1.0000E+00  1.0000E+00  1.0000E+00  1.0000E+00
  1.0000E+00  1.0000E+00  1.0000E+00  1.0000E+00  1.0000E+00  1.0000E+00  1.0000E+00  1.0000E+00  1.0000E+00  1.0000E+00
  1.0000E+00  1.0000E+00  1.0000E+00  1.0000E+00  1.0000E+00  1.0000E+00  1.0000E+00  1.0000E+00  1.0000E+00  1.0000E+00
  1.0000E+00  1.0000E+00  1.0000E+00  1.0000E+00  1.0000E+00  1.0000E+00  1.0000E+00  1.0000E+00  1.0000E+00  1.0000E+00
  1.0000E+00  1.0000E+00  1.0000E+00  1.0000E+00  1.0000E+00  1.0000E+00  1.0000E+00  1.0000E+00  1.0000E+00  1.0000E+00
  1.0000E+00  1.0000E+00  1.0000E+00  1.0000E+00  1.0000E+00  1.0000E+00  1.0000E+00  1.0000E+00  1.0000E+00  1.0000E+00
  1.0000E+00  1.0000E+00  1.0000E+00  1.0000E+00  1.0000E+00  1.0000E+00  1.0000E+00  1.0000E+00  1.0000E+00  1.0000E+00
  1.0000E+00  1.0000E+00  1.0000E+00  1.0000E+00  1.0000E+00  1.0000E+00  1.0000E+00  1.0000E+00  1.0000E+00  1.0000E+00
  1.0000E+00  1.0000E+00  1.0000E+00  1.0000E+00  1.0000E+00  1.0000E+00  1.0000E+00  1.0000E+00  1.0000E+00  1.0000E+00
  1.0000E+00  1.0000E+00  1.0000E+00  1.0000E+00  1.0000E+00  1.0000E+00  1.0000E+00  1.0000E+00  1.0000E+00  1.0000E+00
  1.0000E+00  1.0000E+00  1.0000E+00  1.0000E+00  1.0000E+00  1.0000E+00  1.0000E+00  1.0000E+00  1.0000E+00  1.0000E+00
  1.0000E+00  1.0000E+00  1.0000E+00  1.0000E+00  1.0000E+00  1.0000E+00  1.0000E+00  1.0000E+00  1.0000E+00  1.0000E+00
  1.0000E+00  1.0000E+00  1.0000E+00  1.0000E+00  1.0000E+00  1.0000E+00  1.0000E+00  1.0000E+00  1.0000E+00  1.0000E+00
  1.0000E+00  1.0000E+00  1.0000E+00  1.0000E+00  1.0000E+00  1.0000E+00  1.0000E+00  1.0000E+00  1.0000E+00  1.0000E+00
  1.0000E+00  1.0000E+00  1.0000E+00  1.0000E+00  1.0000E+00  1.0000E+00  1.0000E+00  1.0000E+00  1.0000E+00  1.0000E+00
  1.0000E+00  1.0000E+00  1.0000E+00  1.0000E+00  1.0000E+00  1.0000E+00  1.0000E+00  1.0000E+00  1.0000E+00  1.0000E+00
  1.0000E+00  1.0000E+00  1.0000E+00  1.0000E+00  1.0000E+00  1.0000E+00  1.0000E+00  1.0000E+00  1.0000E+00  1.0000E+00
  1.0000E+00  1.0000E+00  1.0000E+00  1.0000E+00  1.0000E+00  1.0000E+00  1.0000E+00  1.0000E+00  1.0000E+00  1.0000E+00
  1.0000E+00  1.0000E+00  1.0000E+00  1.0000E+00  1.0000E+00  1.0000E+00  1.0000E+00  1.0000E+00  1.0000E+00  1.0000E+00
  1.0000E+00  1.0000E+00  1.0000E+00  1.0000E+00  1.0000E+00  1.0000E+00  1.0000E+00  1.0000E+00  1.0000E+00  1.0000E+00

 *GRAV
  gravity    =  [m/s^2]     0.0000E+00  0.0000E+00 -9.8000E+00
 Extent of Gridded Domain
  X: 0.000000000000000E+000 - 1.00000000000000
  Y: 0.000000000000000E+000 - 1.00000000000000
  Z: 0.000000000000000E+000 - 1000.00000000000
 
 
=+=+=+=+=+=+=+=+=+=+=+=+=+=+=+=+=+=+=+=+=+=+=+=+=+=+=+=+=+=+=+=+=+=+=+=+=+=+=+=+

  Initial Condition

--------------------------------------------------------------------------------
          Flow Condition:   initial
                  Region:   all
--------------------------------------------------------------------------------

  Flow Condition: initial
    Synchronize time with update: no
    Time units: 
    Length units: 
      Datum:
        Dataset: Unnamed Ascii Dataset
          Type: dataset_ascii_type
          Transient: no
          Array Rank:  3

    Sub Condition: 
      Type: hydrostatic
      Gradient:
      Data:
        Dataset: Unnamed Ascii Dataset
          Type: dataset_ascii_type
          Transient: no
          Array Rank:  1

    Sub Condition: 
      Type: dirichlet
      Gradient:
      Data:
        Dataset: Unnamed Ascii Dataset
          Type: dataset_ascii_type
          Transient: no
          Array Rank:  1

    Sub Condition: 
      Type: dirichlet
      Gradient:
        Dataset: Unnamed Ascii Dataset
          Type: dataset_ascii_type
          Transient: no
          Array Rank:  3
      Data:
        Dataset: Unnamed Ascii Dataset
          Type: dataset_ascii_type
          Transient: no
          Array Rank:  1

--------------------------------------------------------------------------------
 
=+=+=+=+=+=+=+=+=+=+=+=+=+=+=+=+=+=+=+=+=+=+=+=+=+=+=+=+=+=+=+=+=+=+=+=+=+=+=+=+

  Boundary Condition

--------------------------------------------------------------------------------
          Flow Condition:   top
                  Region:   top
--------------------------------------------------------------------------------

  Flow Condition: top
    Synchronize time with update: no
    Time units: 
    Length units: 
      Datum:
        Dataset: Unnamed Ascii Dataset
          Type: dataset_ascii_type
          Transient: no
          Array Rank:  3

    Sub Condition: 
      Type: hydrostatic
      Gradient:
      Data:
        Dataset: Unnamed Ascii Dataset
          Type: dataset_ascii_type
          Is transient?: yes
          Number of times:    121
          Is cyclic?: no
          Buffer:
            Rank:  2
            Dims:    1 121
            Buffer Slice Size:   0
          Array Rank:  1

    Sub Condition: 
      Type: dirichlet
      Gradient:
      Data:
        Dataset: Unnamed Ascii Dataset
          Type: dataset_ascii_type
          Transient: no
          Array Rank:  1

    Sub Condition: 
      Type: dirichlet
      Gradient:
        Dataset: Unnamed Ascii Dataset
          Type: dataset_ascii_type
          Transient: no
          Array Rank:  3
      Data:
        Dataset: Unnamed Ascii Dataset
          Type: dataset_ascii_type
          Is transient?: yes
          Number of times:     42
          Is cyclic?: no
          Buffer:
            Rank:  2
            Dims:    1  42
            Buffer Slice Size:   0
          Array Rank:  1

--------------------------------------------------------------------------------
 
=+=+=+=+=+=+=+=+=+=+=+=+=+=+=+=+=+=+=+=+=+=+=+=+=+=+=+=+=+=+=+=+=+=+=+=+=+=+=+=+

  Boundary Condition

--------------------------------------------------------------------------------
          Flow Condition:   bottom
                  Region:   bottom
--------------------------------------------------------------------------------

  Flow Condition: bottom
    Synchronize time with update: no
    Time units: 
    Length units: 
      Datum:

    Sub Condition: 
      Type: neumann
      Gradient:
      Data:
        Dataset: Unnamed Ascii Dataset
          Type: dataset_ascii_type
          Transient: no
          Array Rank:  1

    Sub Condition: 
      Type: neumann
      Gradient:
      Data:
        Dataset: Unnamed Ascii Dataset
          Type: dataset_ascii_type
          Transient: no
          Array Rank:  1

    Sub Condition: 
      Type: neumann
      Gradient:
      Data:
        Dataset: Unnamed Ascii Dataset
          Type: dataset_ascii_type
          Transient: no
          Array Rank:  1

--------------------------------------------------------------------------------

 Requested processors and decomposition =     1, npx,y,z=   -1  -1  -1
 Actual decomposition: npx,y,z=    1   1   1


FLOW Time Stepper
acceleration: on
acceleration threshold: 5
number of ramp entries: 5
ramp entry #1: 2.0000
ramp entry #2: 2.0000
ramp entry #3: 2.0000
ramp entry #4: 2.0000
ramp entry #5: 2.0000
ramp entry #6: 1.8000
ramp entry #7: 1.6000
ramp entry #8: 1.4000
ramp entry #9: 1.2000
ramp entry #10: 1.0000
ramp entry #11: 1.0000
ramp entry #12: 1.0000
ramp entry #13: 1.0000
maximum number of steps: 10000
constant time steps threshold: 5
maximum number of cuts: 16
reduction factor: 5.000000E-01
maximum growth factor: 2.000000E+00

FLOW Newton Solver
atol: 1.000000E-50
rtol: 1.000000E-08
stol: 1.000000E-08
dtol: 1.000000E+09
maxnorm: 1.000000E+20
inftolres: -9.990000E+02
inftolupd: -9.990000E+02
inftolrelupd: -9.990000E+02
inftolsclres: -9.990000E+02
max iter: 8
min iter: 1
maxf: 10000
matrix type: baij
precond. matrix type: baij
inexact newton: off
print convergence: on
print detailed convergence: off
check infinity norm: on

FLOW Linear Solver
solver: bcgs
preconditioner: ilu
atol: 1.000000E-50
rtol: 1.000000E-05
dtol: 1.000000E+04
maximum iteration: 10000

== GAS HYDRATE + MULTIPHASE FLOW ===============================================
 Step      1 Time=  1.00000E-06 Dt=  1.00000E-06 [y] snes_conv_reason:  999
  newton =   1 [       1] linear =     1 [         1] cuts =  0 [   0]
  --> max chng: dpl=   2.3423E+03 dpg=   0.0000E+00 dpa=   0.0000E+00
                dxa=   3.3944E-11  dt=   2.2619E-05 dsg=   0.0000E+00
                dsh=   0.0000E+00 dsl=   0.0000E+00 dsi=   0.0000E+00

== GAS HYDRATE + MULTIPHASE FLOW ===============================================
 Step      2 Time=  3.00000E-06 Dt=  2.00000E-06 [y] snes_conv_reason:  999
  newton =   1 [       2] linear =     1 [         2] cuts =  0 [   0]
  --> max chng: dpl=   1.6563E+03 dpg=   0.0000E+00 dpa=   0.0000E+00
                dxa=   6.7888E-11  dt=   1.8406E-05 dsg=   0.0000E+00
                dsh=   0.0000E+00 dsl=   0.0000E+00 dsi=   0.0000E+00

== GAS HYDRATE + MULTIPHASE FLOW ===============================================
 Step      3 Time=  7.00000E-06 Dt=  4.00000E-06 [y] snes_conv_reason:  999
  newton =   1 [       3] linear =     1 [         3] cuts =  0 [   0]
  --> max chng: dpl=   1.4320E+01 dpg=   0.0000E+00 dpa=   0.0000E+00
                dxa=   1.3578E-10  dt=   2.8407E-07 dsg=   0.0000E+00
                dsh=   0.0000E+00 dsl=   0.0000E+00 dsi=   0.0000E+00

== GAS HYDRATE + MULTIPHASE FLOW ===============================================
 Step      4 Time=  1.50000E-05 Dt=  8.00000E-06 [y] snes_conv_reason:  999
  newton =   1 [       4] linear =     1 [         4] cuts =  0 [   0]
  --> max chng: dpl=   3.7190E-01 dpg=   0.0000E+00 dpa=   0.0000E+00
                dxa=   2.7155E-10  dt=   2.6922E-07 dsg=   0.0000E+00
                dsh=   0.0000E+00 dsl=   0.0000E+00 dsi=   0.0000E+00

== GAS HYDRATE + MULTIPHASE FLOW ===============================================
 Step      5 Time=  3.10000E-05 Dt=  1.60000E-05 [y] snes_conv_reason:  999
  newton =   1 [       5] linear =     1 [         5] cuts =  0 [   0]
  --> max chng: dpl=   4.7030E-03 dpg=   0.0000E+00 dpa=   0.0000E+00
                dxa=   5.4311E-10  dt=   5.3014E-07 dsg=   0.0000E+00
                dsh=   0.0000E+00 dsl=   0.0000E+00 dsi=   0.0000E+00

== GAS HYDRATE + MULTIPHASE FLOW ===============================================
 Step      6 Time=  6.30000E-05 Dt=  3.20000E-05 [y] snes_conv_reason:  999
  newton =   1 [       6] linear =     1 [         6] cuts =  0 [   0]
  --> max chng: dpl=   1.0728E-03 dpg=   0.0000E+00 dpa=   0.0000E+00
                dxa=   1.0862E-09  dt=   1.0597E-06 dsg=   0.0000E+00
                dsh=   0.0000E+00 dsl=   0.0000E+00 dsi=   0.0000E+00

== GAS HYDRATE + MULTIPHASE FLOW ===============================================
 Step      7 Time=  1.27000E-04 Dt=  6.40000E-05 [y] snes_conv_reason:  999
  newton =   1 [       7] linear =     1 [         7] cuts =  0 [   0]
  --> max chng: dpl=   2.1615E-03 dpg=   0.0000E+00 dpa=   0.0000E+00
                dxa=   2.1724E-09  dt=   2.1177E-06 dsg=   0.0000E+00
                dsh=   0.0000E+00 dsl=   0.0000E+00 dsi=   0.0000E+00

== GAS HYDRATE + MULTIPHASE FLOW ===============================================
 Step      8 Time=  2.55000E-04 Dt=  1.28000E-04 [y] snes_conv_reason:  999
  newton =   1 [       8] linear =     1 [         8] cuts =  0 [   0]
  --> max chng: dpl=   4.2902E-03 dpg=   0.0000E+00 dpa=   0.0000E+00
                dxa=   4.3448E-09  dt=   4.2282E-06 dsg=   0.0000E+00
                dsh=   0.0000E+00 dsl=   0.0000E+00 dsi=   0.0000E+00

== GAS HYDRATE + MULTIPHASE FLOW ===============================================
 Step      9 Time=  5.11000E-04 Dt=  2.56000E-04 [y] snes_conv_reason:  999
  newton =   1 [       9] linear =     1 [         9] cuts =  0 [   0]
  --> max chng: dpl=   8.5836E-03 dpg=   0.0000E+00 dpa=   0.0000E+00
                dxa=   8.6895E-09  dt=   8.4284E-06 dsg=   0.0000E+00
                dsh=   0.0000E+00 dsl=   0.0000E+00 dsi=   0.0000E+00

== GAS HYDRATE + MULTIPHASE FLOW ===============================================
 Step     10 Time=  1.02300E-03 Dt=  5.12000E-04 [y] snes_conv_reason:  999
  newton =   1 [      10] linear =     1 [        10] cuts =  0 [   0]
  --> max chng: dpl=   1.7161E-02 dpg=   0.0000E+00 dpa=   0.0000E+00
                dxa=   1.7378E-08  dt=   1.6746E-05 dsg=   0.0000E+00
                dsh=   0.0000E+00 dsl=   0.0000E+00 dsi=   0.0000E+00

== GAS HYDRATE + MULTIPHASE FLOW ===============================================
 Step     11 Time=  2.04700E-03 Dt=  1.02400E-03 [y] snes_conv_reason:  999
  newton =   1 [      11] linear =     1 [        11] cuts =  0 [   0]
  --> max chng: dpl=   3.4322E-02 dpg=   0.0000E+00 dpa=   0.0000E+00
                dxa=   3.4755E-08  dt=   3.3059E-05 dsg=   0.0000E+00
                dsh=   0.0000E+00 dsl=   0.0000E+00 dsi=   0.0000E+00

== GAS HYDRATE + MULTIPHASE FLOW ===============================================
 Step     12 Time=  4.09500E-03 Dt=  2.04800E-03 [y] snes_conv_reason:  999
  newton =   1 [      12] linear =     1 [        12] cuts =  0 [   0]
  --> max chng: dpl=   6.8644E-02 dpg=   0.0000E+00 dpa=   0.0000E+00
                dxa=   6.9503E-08  dt=   6.4473E-05 dsg=   0.0000E+00
                dsh=   0.0000E+00 dsl=   0.0000E+00 dsi=   0.0000E+00

== GAS HYDRATE + MULTIPHASE FLOW ===============================================
 Step     13 Time=  8.19100E-03 Dt=  4.09600E-03 [y] snes_conv_reason:  999
  newton =   1 [      13] linear =     1 [        13] cuts =  0 [   0]
  --> max chng: dpl=   1.3729E-01 dpg=   0.0000E+00 dpa=   0.0000E+00
                dxa=   1.3898E-07  dt=   1.2298E-04 dsg=   0.0000E+00
                dsh=   0.0000E+00 dsl=   0.0000E+00 dsi=   0.0000E+00

== GAS HYDRATE + MULTIPHASE FLOW ===============================================
 Step     14 Time=  1.63830E-02 Dt=  8.19200E-03 [y] snes_conv_reason:  999
  newton =   1 [      14] linear =     1 [        14] cuts =  0 [   0]
  --> max chng: dpl=   2.7458E-01 dpg=   0.0000E+00 dpa=   0.0000E+00
                dxa=   2.7784E-07  dt=   2.2595E-04 dsg=   0.0000E+00
                dsh=   0.0000E+00 dsl=   0.0000E+00 dsi=   0.0000E+00

== GAS HYDRATE + MULTIPHASE FLOW ===============================================
 Step     15 Time=  3.27670E-02 Dt=  1.63840E-02 [y] snes_conv_reason:  999
  newton =   1 [      15] linear =     1 [        15] cuts =  0 [   0]
  --> max chng: dpl=   5.4915E-01 dpg=   0.0000E+00 dpa=   0.0000E+00
                dxa=   5.5521E-07  dt=   3.9293E-04 dsg=   0.0000E+00
                dsh=   0.0000E+00 dsl=   0.0000E+00 dsi=   0.0000E+00

== GAS HYDRATE + MULTIPHASE FLOW ===============================================
 Step     16 Time=  6.55350E-02 Dt=  3.27680E-02 [y] snes_conv_reason:  999
  newton =   2 [      17] linear =     2 [        17] cuts =  0 [   0]
  --> max chng: dpl=   1.1125E+00 dpg=   0.0000E+00 dpa=   0.0000E+00
                dxa=   1.1086E-06  dt=   6.3943E-04 dsg=   0.0000E+00
                dsh=   0.0000E+00 dsl=   0.0000E+00 dsi=   0.0000E+00

== GAS HYDRATE + MULTIPHASE FLOW ===============================================
 Step     17 Time=  1.31071E-01 Dt=  6.55360E-02 [y] snes_conv_reason:  999
  newton =   2 [      19] linear =     2 [        19] cuts =  0 [   0]
  --> max chng: dpl=   2.1966E+00 dpg=   0.0000E+00 dpa=   0.0000E+00
                dxa=   2.2098E-06  dt=   9.7878E-04 dsg=   0.0000E+00
                dsh=   0.0000E+00 dsl=   0.0000E+00 dsi=   0.0000E+00

== GAS HYDRATE + MULTIPHASE FLOW ===============================================
 Step     18 Time=  2.62143E-01 Dt=  1.31072E-01 [y] snes_conv_reason:  999
  newton =   2 [      21] linear =     2 [        21] cuts =  0 [   0]
  --> max chng: dpl=   4.3932E+00 dpg=   0.0000E+00 dpa=   0.0000E+00
                dxa=   4.3903E-06  dt=   1.4369E-03 dsg=   0.0000E+00
                dsh=   0.0000E+00 dsl=   0.0000E+00 dsi=   0.0000E+00

== GAS HYDRATE + MULTIPHASE FLOW ===============================================
 Step     19 Time=  5.24287E-01 Dt=  2.62144E-01 [y] snes_conv_reason:  999
  newton =   2 [      23] linear =     2 [        23] cuts =  0 [   0]
  --> max chng: dpl=   8.7864E+00 dpg=   0.0000E+00 dpa=   0.0000E+00
                dxa=   8.6653E-06  dt=   2.0636E-03 dsg=   0.0000E+00
                dsh=   0.0000E+00 dsl=   0.0000E+00 dsi=   0.0000E+00

== GAS HYDRATE + MULTIPHASE FLOW ===============================================
 Step     20 Time=  1.04857E+00 Dt=  5.24288E-01 [y] snes_conv_reason:  999
  newton =   2 [      25] linear =     2 [        25] cuts =  0 [   0]
  --> max chng: dpl=   1.7573E+01 dpg=   0.0000E+00 dpa=   0.0000E+00
                dxa=   1.6883E-05  dt=   2.9328E-03 dsg=   0.0000E+00
                dsh=   0.0000E+00 dsl=   0.0000E+00 dsi=   0.0000E+00

== GAS HYDRATE + MULTIPHASE FLOW ===============================================
 Step     21 Time=  2.09715E+00 Dt=  1.04858E+00 [y] snes_conv_reason:  999
  newton =   2 [      27] linear =     2 [        27] cuts =  0 [   0]
  --> max chng: dpl=   3.5146E+01 dpg=   0.0000E+00 dpa=   0.0000E+00
                dxa=   3.2073E-05  dt=   4.1449E-03 dsg=   0.0000E+00
                dsh=   0.0000E+00 dsl=   0.0000E+00 dsi=   0.0000E+00

== GAS HYDRATE + MULTIPHASE FLOW ===============================================
 Step     22 Time=  4.19430E+00 Dt=  2.09715E+00 [y] snes_conv_reason:  999
  newton =   2 [      29] linear =     2 [        29] cuts =  0 [   0]
  --> max chng: dpl=   7.0291E+01 dpg=   0.0000E+00 dpa=   0.0000E+00
                dxa=   5.8087E-05  dt=   5.8350E-03 dsg=   0.0000E+00
                dsh=   0.0000E+00 dsl=   0.0000E+00 dsi=   0.0000E+00

== GAS HYDRATE + MULTIPHASE FLOW ===============================================
 Step     23 Time=  8.38861E+00 Dt=  4.19430E+00 [y] snes_conv_reason:  999
  newton =   2 [      31] linear =     2 [        31] cuts =  0 [   0]
  --> max chng: dpl=   1.4058E+02 dpg=   0.0000E+00 dpa=   0.0000E+00
                dxa=   9.6503E-05  dt=   8.1834E-03 dsg=   0.0000E+00
                dsh=   0.0000E+00 dsl=   0.0000E+00 dsi=   0.0000E+00

== GAS HYDRATE + MULTIPHASE FLOW ===============================================
 Step     24 Time=  1.67772E+01 Dt=  8.38861E+00 [y] snes_conv_reason:  999
  newton =   2 [      33] linear =     2 [        33] cuts =  0 [   0]
  --> max chng: dpl=   2.8117E+02 dpg=   0.0000E+00 dpa=   0.0000E+00
                dxa=   1.3889E-04  dt=   1.1424E-02 dsg=   0.0000E+00
                dsh=   0.0000E+00 dsl=   0.0000E+00 dsi=   0.0000E+00

== GAS HYDRATE + MULTIPHASE FLOW ===============================================
 Step     25 Time=  3.35544E+01 Dt=  1.67772E+01 [y] snes_conv_reason:  999
  newton =   3 [      36] linear =     3 [        36] cuts =  0 [   0]
  --> max chng: dpl=   5.6233E+02 dpg=   0.0000E+00 dpa=   0.0000E+00
                dxa=   1.6213E-04  dt=   1.5850E-02 dsg=   0.0000E+00
                dsh=   0.0000E+00 dsl=   0.0000E+00 dsi=   0.0000E+00

== GAS HYDRATE + MULTIPHASE FLOW ===============================================
 Step     26 Time=  6.71089E+01 Dt=  3.35544E+01 [y] snes_conv_reason:  999
  newton =   3 [      39] linear =     3 [        39] cuts =  0 [   0]
  --> max chng: dpl=   1.1247E+03 dpg=   0.0000E+00 dpa=   0.0000E+00
                dxa=   1.4725E-04  dt=   2.1792E-02 dsg=   0.0000E+00
                dsh=   0.0000E+00 dsl=   0.0000E+00 dsi=   0.0000E+00

== GAS HYDRATE + MULTIPHASE FLOW ===============================================
 Step     27 Time=  1.34218E+02 Dt=  6.71089E+01 [y] snes_conv_reason:  999
  newton =   3 [      42] linear =     3 [        42] cuts =  0 [   0]
  --> max chng: dpl=   2.2493E+03 dpg=   0.0000E+00 dpa=   0.0000E+00
                dxa=   1.5761E-04  dt=   2.9549E-02 dsg=   0.0000E+00
                dsh=   0.0000E+00 dsl=   0.0000E+00 dsi=   0.0000E+00

== GAS HYDRATE + MULTIPHASE FLOW ===============================================
 Step     28 Time=  2.68435E+02 Dt=  1.34218E+02 [y] snes_conv_reason:  999
  newton =   3 [      45] linear =     3 [        45] cuts =  0 [   0]
  --> max chng: dpl=   4.4987E+03 dpg=   0.0000E+00 dpa=   0.0000E+00
                dxa=   1.5184E-04  dt=   3.9197E-02 dsg=   0.0000E+00
                dsh=   0.0000E+00 dsl=   0.0000E+00 dsi=   0.0000E+00

== GAS HYDRATE + MULTIPHASE FLOW ===============================================
 Step     29 Time=  5.36871E+02 Dt=  2.68435E+02 [y] snes_conv_reason:  999
  newton =   3 [      48] linear =     3 [        48] cuts =  0 [   0]
  --> max chng: dpl=   8.9973E+03 dpg=   0.0000E+00 dpa=   0.0000E+00
                dxa=   1.5238E-04  dt=   5.0100E-02 dsg=   0.0000E+00
                dsh=   0.0000E+00 dsl=   0.0000E+00 dsi=   0.0000E+00

== GAS HYDRATE + MULTIPHASE FLOW ===============================================
 Step     30 Time=  1.07374E+03 Dt=  5.36871E+02 [y] snes_conv_reason:  999
  newton =   3 [      51] linear =     3 [        51] cuts =  0 [   0]
  --> max chng: dpl=   1.7995E+04 dpg=   0.0000E+00 dpa=   0.0000E+00
                dxa=   1.5411E-04  dt=   5.9758E-02 dsg=   0.0000E+00
                dsh=   0.0000E+00 dsl=   0.0000E+00 dsi=   0.0000E+00

== GAS HYDRATE + MULTIPHASE FLOW ===============================================
 Step     31 Time=  2.14748E+03 Dt=  1.07374E+03 [y] snes_conv_reason:  999
  newton =   3 [      54] linear =     3 [        54] cuts =  0 [   0]
  --> max chng: dpl=   3.3680E+04 dpg=   0.0000E+00 dpa=   0.0000E+00
                dxa=   1.4974E-04  dt=   7.6683E-02 dsg=   0.0000E+00
                dsh=   0.0000E+00 dsl=   0.0000E+00 dsi=   0.0000E+00

== GAS HYDRATE + MULTIPHASE FLOW ===============================================
 Step     32 Time=  4.29497E+03 Dt=  2.14748E+03 [y] snes_conv_reason:  999
  newton =   3 [      57] linear =     3 [        57] cuts =  0 [   0]
  --> max chng: dpl=   4.2755E+04 dpg=   0.0000E+00 dpa=   0.0000E+00
                dxa=   1.3741E-04  dt=   1.1182E-01 dsg=   0.0000E+00
                dsh=   0.0000E+00 dsl=   0.0000E+00 dsi=   0.0000E+00

== GAS HYDRATE + MULTIPHASE FLOW ===============================================
 Step     33 Time=  8.58993E+03 Dt=  4.29497E+03 [y] snes_conv_reason:  999
  newton =   4 [      61] linear =     4 [        61] cuts =  0 [   0]
  --> max chng: dpl=   1.5113E+05 dpg=   0.0000E+00 dpa=   0.0000E+00
                dxa=   1.3890E-04  dt=   1.2237E-01 dsg=   0.0000E+00
                dsh=   0.0000E+00 dsl=   0.0000E+00 dsi=   0.0000E+00

== GAS HYDRATE + MULTIPHASE FLOW ===============================================
 Step     34 Time=  1.71799E+04 Dt=  8.58993E+03 [y] snes_conv_reason:  999
  newton =   4 [      65] linear =     4 [        65] cuts =  0 [   0]
  --> max chng: dpl=   2.1978E+05 dpg=   0.0000E+00 dpa=   0.0000E+00
                dxa=   2.7455E-04  dt=   5.5085E-01 dsg=   0.0000E+00
                dsh=   0.0000E+00 dsl=   0.0000E+00 dsi=   0.0000E+00

== GAS HYDRATE + MULTIPHASE FLOW ===============================================
 Step     35 Time=  2.71799E+04 Dt=  1.00000E+04 [y] snes_conv_reason:  999
  newton =   4 [      69] linear =     4 [        69] cuts =  0 [   0]
  --> max chng: dpl=   1.6869E+05 dpg=   0.0000E+00 dpa=   0.0000E+00
                dxa=   3.1665E-04  dt=   6.3549E-01 dsg=   0.0000E+00
                dsh=   0.0000E+00 dsl=   0.0000E+00 dsi=   0.0000E+00

== GAS HYDRATE + MULTIPHASE FLOW ===============================================
 Step     36 Time=  3.71799E+04 Dt=  1.00000E+04 [y] snes_conv_reason:  999
  newton =   4 [      73] linear =     4 [        73] cuts =  0 [   0]
  --> max chng: dpl=   1.3448E+05 dpg=   0.0000E+00 dpa=   0.0000E+00
                dxa=   3.1428E-04  dt=   1.2394E+00 dsg=   0.0000E+00
                dsh=   0.0000E+00 dsl=   0.0000E+00 dsi=   0.0000E+00

== GAS HYDRATE + MULTIPHASE FLOW ===============================================
 Step     37 Time=  4.71799E+04 Dt=  1.00000E+04 [y] snes_conv_reason:  999
  newton =   4 [      77] linear =     4 [        77] cuts =  0 [   0]
  --> max chng: dpl=   1.5841E+05 dpg=   0.0000E+00 dpa=   0.0000E+00
                dxa=   3.0926E-04  dt=   3.5954E-01 dsg=   0.0000E+00
                dsh=   0.0000E+00 dsl=   1.8638E-03 dsi=   0.0000E+00

== GAS HYDRATE + MULTIPHASE FLOW ===============================================
 Step     38 Time=  5.71799E+04 Dt=  1.00000E+04 [y] snes_conv_reason:  999
  newton =   4 [      81] linear =     4 [        81] cuts =  0 [   0]
  --> max chng: dpl=   1.8118E+05 dpg=   1.8109E+05 dpa=   1.8105E+05
                dxa=   3.0231E-04  dt=   5.9179E-01 dsg=   0.0000E+00
                dsh=   3.6706E-03 dsl=   3.7964E-03 dsi=   0.0000E+00

== GAS HYDRATE + MULTIPHASE FLOW ===============================================
 Step     39 Time=  6.71799E+04 Dt=  1.00000E+04 [y] snes_conv_reason:  999
  newton =   4 [      85] linear =     4 [        85] cuts =  0 [   0]
  --> max chng: dpl=   4.0458E+05 dpg=   4.0450E+05 dpa=   4.0445E+05
                dxa=   2.9619E-04  dt=   8.7158E-01 dsg=   0.0000E+00
                dsh=   4.1294E-03 dsl=   4.3408E-03 dsi=   0.0000E+00

== GAS HYDRATE + MULTIPHASE FLOW ===============================================
 Step     40 Time=  7.71799E+04 Dt=  1.00000E+04 [y] snes_conv_reason:  999
  newton =   4 [      89] linear =     4 [        89] cuts =  0 [   0]
  --> max chng: dpl=   1.6242E+05 dpg=   1.6218E+05 dpa=   1.6220E+05
                dxa=   2.7336E-04  dt=   3.4055E-01 dsg=   0.0000E+00
                dsh=   3.4528E-03 dsl=   3.5728E-03 dsi=   0.0000E+00

== GAS HYDRATE + MULTIPHASE FLOW ===============================================
 Step     41 Time=  8.71799E+04 Dt=  1.00000E+04 [y] snes_conv_reason:  999
  newton =   7 [      96] linear =     7 [        96] cuts =  0 [   0]
  --> max chng: dpl=   5.5856E+04 dpg=   5.4796E+04 dpa=   5.4787E+04
                dxa=   2.5018E-04  dt=   2.9677E-01 dsg=   5.9851E-03
                dsh=   3.7844E-03 dsl=   5.9851E-03 dsi=   0.0000E+00
 Dt limited by Unknown: Val=-9.990E+02, Gov=-9.990E+02, Scale=0.33


== GAS HYDRATE + MULTIPHASE FLOW ===============================================
 Step     42 Time=  8.73861E+04 Dt=  2.06250E+02 [y] snes_conv_reason:  999
  newton =  36 [     132] linear =    37 [       133] cuts =  4 [   4]
  --> max chng: dpl=   2.3868E+05 dpg=   2.2183E+05 dpa=   2.2183E+05
                dxa=   4.1645E-05  dt=   1.9585E-01 dsg=   1.0183E-03
                dsh=   2.0090E-04 dsl=   5.6417E-03 dsi=   0.0000E+00

== GAS HYDRATE + MULTIPHASE FLOW ===============================================
 Step     43 Time=  8.75924E+04 Dt=  2.06250E+02 [y] snes_conv_reason:  999
  newton =   5 [     137] linear =     5 [       138] cuts =  0 [   4]
  --> max chng: dpl=   6.0862E+04 dpg=   6.0681E+04 dpa=   6.0680E+04
                dxa=   1.6893E-05  dt=   1.0158E-01 dsg=   5.4932E-04
                dsh=   1.1523E-04 dsl=   5.9252E-03 dsi=   0.0000E+00

== GAS HYDRATE + MULTIPHASE FLOW ===============================================
 Step     44 Time=  8.77986E+04 Dt=  2.06250E+02 [y] snes_conv_reason:  999
  newton =   5 [     142] linear =     5 [       143] cuts =  0 [   4]
  --> max chng: dpl=   3.2568E+04 dpg=   3.2449E+04 dpa=   3.2448E+04
                dxa=   8.9964E-06  dt=   1.0283E-01 dsg=   3.9091E-04
                dsh=   9.2257E-05 dsl=   6.0886E-03 dsi=   0.0000E+00

== GAS HYDRATE + MULTIPHASE FLOW ===============================================
 Step     45 Time=  8.80049E+04 Dt=  2.06250E+02 [y] snes_conv_reason:  999
  newton =   4 [     146] linear =     4 [       147] cuts =  0 [   4]
  --> max chng: dpl=   1.7243E+04 dpg=   1.7161E+04 dpa=   1.7160E+04
                dxa=   5.6190E-06  dt=   1.0308E-01 dsg=   2.9164E-04
                dsh=   9.4914E-05 dsl=   6.1482E-03 dsi=   0.0000E+00

== GAS HYDRATE + MULTIPHASE FLOW ===============================================
 Step     46 Time=  8.82111E+04 Dt=  2.06250E+02 [y] snes_conv_reason:  999
  newton =   3 [     149] linear =     3 [       150] cuts =  0 [   4]
  --> max chng: dpl=   1.5243E+04 dpg=   1.5163E+04 dpa=   1.5162E+04
                dxa=   6.1954E-06  dt=   1.0319E-01 dsg=   2.7904E-04
                dsh=   8.2030E-05 dsl=   2.7904E-04 dsi=   0.0000E+00

== GAS HYDRATE + MULTIPHASE FLOW ===============================================
 Step     47 Time=  8.84174E+04 Dt=  2.06250E+02 [y] snes_conv_reason:  999
  newton =   2 [     151] linear =     2 [       152] cuts =  0 [   4]
  --> max chng: dpl=   1.0106E+04 dpg=   1.0040E+04 dpa=   1.0039E+04
                dxa=   6.4234E-06  dt=   1.0325E-01 dsg=   2.3502E-04
                dsh=   8.3623E-05 dsl=   2.3502E-04 dsi=   0.0000E+00

== GAS HYDRATE + MULTIPHASE FLOW ===============================================
 Step     48 Time=  8.88299E+04 Dt=  4.12500E+02 [y] snes_conv_reason:  999
  newton =   2 [     153] linear =     2 [       154] cuts =  0 [   4]
  --> max chng: dpl=   1.0140E+04 dpg=   1.0018E+04 dpa=   1.0016E+04
                dxa=   9.4188E-06  dt=   1.0880E-01 dsg=   3.8718E-04
                dsh=   1.9323E-04 dsl=   3.8718E-04 dsi=   0.0000E+00

== GAS HYDRATE + MULTIPHASE FLOW ===============================================
 Step     49 Time=  8.96549E+04 Dt=  8.25000E+02 [y] snes_conv_reason:  999
  newton =   6 [     159] linear =     6 [       160] cuts =  0 [   4]
  --> max chng: dpl=   1.6917E+04 dpg=   2.3245E+04 dpa=   2.3239E+04
                dxa=   1.8612E-05  dt=   1.5786E-01 dsg=   6.9086E-04
                dsh=   3.6494E-04 dsl=   6.1443E-03 dsi=   0.0000E+00
 Dt limited by Unknown: Val=-9.990E+02, Gov=-9.990E+02, Scale=0.33


== GAS HYDRATE + MULTIPHASE FLOW ===============================================
 Step     50 Time=  8.99271E+04 Dt=  2.72250E+02 [y] snes_conv_reason:  999
  newton =   3 [     162] linear =     3 [       163] cuts =  0 [   4]
  --> max chng: dpl=   1.9868E+04 dpg=   1.8667E+04 dpa=   1.8662E+04
                dxa=   8.8419E-06  dt=   1.4950E-01 dsg=   2.5856E-04
                dsh=   1.7621E-04 dsl=   2.5856E-04 dsi=   0.0000E+00

== GAS HYDRATE + MULTIPHASE FLOW ===============================================
 Step     51 Time=  9.04716E+04 Dt=  5.44500E+02 [y] snes_conv_reason:  999
  newton =   6 [     168] linear =     6 [       169] cuts =  0 [   4]
  --> max chng: dpl=   1.5108E+04 dpg=   2.1097E+04 dpa=   2.1093E+04
                dxa=   1.2172E-05  dt=   9.4955E-02 dsg=   1.0568E-02
                dsh=   2.9908E-04 dsl=   6.1241E-03 dsi=   0.0000E+00
 Dt limited by Unknown: Val=-9.990E+02, Gov=-9.990E+02, Scale=0.33


== GAS HYDRATE + MULTIPHASE FLOW ===============================================
 Step     52 Time=  9.06513E+04 Dt=  1.79685E+02 [y] snes_conv_reason:  999
  newton =   3 [     171] linear =     3 [       172] cuts =  0 [   4]
  --> max chng: dpl=   2.5735E+04 dpg=   2.4033E+04 dpa=   2.4030E+04
                dxa=   5.3972E-06  dt=   6.7994E-02 dsg=   2.0158E-04
                dsh=   1.2471E-03 dsl=   1.1206E-03 dsi=   0.0000E+00

== GAS HYDRATE + MULTIPHASE FLOW ===============================================
 Step     53 Time=  9.10107E+04 Dt=  3.59370E+02 [y] snes_conv_reason:  999
  newton =   4 [     175] linear =     4 [       176] cuts =  0 [   4]
  --> max chng: dpl=   1.5442E+04 dpg=   1.6929E+04 dpa=   1.6926E+04
                dxa=   7.9813E-06  dt=   4.9446E-02 dsg=   5.9371E-03
                dsh=   2.6491E-04 dsl=   2.9930E-03 dsi=   0.0000E+00

== GAS HYDRATE + MULTIPHASE FLOW ===============================================
 Step     54 Time=  9.17294E+04 Dt=  7.18740E+02 [y] snes_conv_reason:  999
  newton =   5 [     180] linear =     5 [       181] cuts =  0 [   4]
  --> max chng: dpl=   2.1892E+04 dpg=   2.8248E+04 dpa=   2.8242E+04
                dxa=   1.5796E-05  dt=   6.8967E-02 dsg=   5.7970E-04
                dsh=   3.9975E-03 dsl=   6.5684E-03 dsi=   0.0000E+00
 Dt limited by Unknown: Val=-9.990E+02, Gov=-9.990E+02, Scale=0.33


== GAS HYDRATE + MULTIPHASE FLOW ===============================================
 Step     55 Time=  9.19666E+04 Dt=  2.37184E+02 [y] snes_conv_reason:  999
  newton =   3 [     183] linear =     3 [       184] cuts =  0 [   4]
  --> max chng: dpl=   3.1136E+04 dpg=   2.9403E+04 dpa=   2.9404E+04
                dxa=   5.2023E-06  dt=   3.3230E-02 dsg=   2.6417E-04
                dsh=   1.6283E-04 dsl=   2.6417E-04 dsi=   0.0000E+00

== GAS HYDRATE + MULTIPHASE FLOW ===============================================
 Step     56 Time=  9.24410E+04 Dt=  4.74368E+02 [y] snes_conv_reason:  999
  newton =   4 [     187] linear =     4 [       188] cuts =  0 [   4]
  --> max chng: dpl=   1.9703E+04 dpg=   2.2498E+04 dpa=   2.2495E+04
                dxa=   1.0333E-05  dt=   3.4653E-02 dsg=   9.0502E-03
                dsh=   2.9707E-04 dsl=   4.4881E-03 dsi=   0.0000E+00

== GAS HYDRATE + MULTIPHASE FLOW ===============================================
 Step     57 Time=  9.33897E+04 Dt=  9.48737E+02 [y] snes_conv_reason:  999
  newton =   4 [     191] linear =     4 [       192] cuts =  0 [   4]
  --> max chng: dpl=   1.8781E+04 dpg=   2.4952E+04 dpa=   2.4946E+04
                dxa=   2.0419E-05  dt=   5.6414E-02 dsg=   6.9962E-04
                dsh=   2.8521E-03 dsl=   6.8142E-03 dsi=   0.0000E+00

== GAS HYDRATE + MULTIPHASE FLOW ===============================================
 Step     58 Time=  9.52872E+04 Dt=  1.89747E+03 [y] snes_conv_reason:  999
  newton =   5 [     196] linear =     5 [       197] cuts =  0 [   4]
  --> max chng: dpl=   3.3443E+04 dpg=   3.8058E+04 dpa=   3.8051E+04
                dxa=   4.0041E-05  dt=   8.7811E-02 dsg=   1.3383E-03
                dsh=   1.0270E-03 dsl=   6.3542E-03 dsi=   0.0000E+00
 Dt limited by Unknown: Val=-9.990E+02, Gov=-9.990E+02, Scale=0.33


== GAS HYDRATE + MULTIPHASE FLOW ===============================================
 Step     59 Time=  9.59133E+04 Dt=  6.26166E+02 [y] snes_conv_reason:  999
  newton =   5 [     201] linear =     5 [       202] cuts =  0 [   4]
  --> max chng: dpl=   7.9216E+04 dpg=   7.6294E+04 dpa=   7.6297E+04
                dxa=   1.7243E-05  dt=   8.8196E-02 dsg=   1.0178E-03
                dsh=   3.3985E-04 dsl=   8.9541E-03 dsi=   0.0000E+00
 Dt limited by Unknown: Val=-9.990E+02, Gov=-9.990E+02, Scale=0.33


== GAS HYDRATE + MULTIPHASE FLOW ===============================================
 Step     60 Time=  9.61200E+04 Dt=  2.06635E+02 [y] snes_conv_reason:  999
  newton =   4 [     205] linear =     4 [       206] cuts =  0 [   4]
  --> max chng: dpl=   1.9535E+04 dpg=   1.8986E+04 dpa=   1.8987E+04
                dxa=   4.4448E-06  dt=   2.9154E-02 dsg=   3.0094E-04
                dsh=   6.1646E-03 dsl=   6.6739E-03 dsi=   0.0000E+00

== GAS HYDRATE + MULTIPHASE FLOW ===============================================
 Step     61 Time=  9.65332E+04 Dt=  4.13270E+02 [y] snes_conv_reason:  999
  newton =   3 [     208] linear =     3 [       209] cuts =  0 [   4]
  --> max chng: dpl=   1.7405E+04 dpg=   1.7295E+04 dpa=   1.7292E+04
                dxa=   8.5749E-06  dt=   1.7150E-02 dsg=   4.9919E-03
                dsh=   1.7482E-04 dsl=   2.7175E-03 dsi=   0.0000E+00

== GAS HYDRATE + MULTIPHASE FLOW ===============================================
 Step     62 Time=  9.73598E+04 Dt=  8.26540E+02 [y] snes_conv_reason:  999
  newton =   3 [     211] linear =     3 [       212] cuts =  0 [   4]
  --> max chng: dpl=   5.2933E+03 dpg=   4.7497E+03 dpa=   4.7443E+03
                dxa=   1.6990E-05  dt=   3.2283E-02 dsg=   6.6400E-04
                dsh=   3.6515E-04 dsl=   6.6400E-04 dsi=   0.0000E+00

== GAS HYDRATE + MULTIPHASE FLOW ===============================================
 Step     63 Time=  9.90129E+04 Dt=  1.65308E+03 [y] snes_conv_reason:  999
  newton =   5 [     216] linear =     5 [       217] cuts =  0 [   4]
  --> max chng: dpl=   1.6459E+04 dpg=   1.5905E+04 dpa=   1.5903E+04
                dxa=   3.3532E-05  dt=   6.1631E-02 dsg=   1.0735E-03
                dsh=   5.6419E-04 dsl=   8.5720E-03 dsi=   0.0000E+00
 Dt limited by Unknown: Val=-9.990E+02, Gov=-9.990E+02, Scale=0.33


== GAS HYDRATE + MULTIPHASE FLOW ===============================================
 Step     64 Time=  9.95584E+04 Dt=  5.45516E+02 [y] snes_conv_reason:  999
  newton =   6 [     222] linear =     6 [       223] cuts =  0 [   4]
  --> max chng: dpl=   7.7205E+04 dpg=   7.3305E+04 dpa=   7.3302E+04
                dxa=   1.6240E-05  dt=   7.6812E-02 dsg=   2.1843E-04
                dsh=   1.8550E-04 dsl=   9.5475E-03 dsi=   0.0000E+00
 Dt limited by Unknown: Val=-9.990E+02, Gov=-9.990E+02, Scale=0.33


== GAS HYDRATE + MULTIPHASE FLOW ===============================================
 Step     65 Time=  9.97384E+04 Dt=  1.80020E+02 [y] snes_conv_reason:  999
  newton =   5 [     227] linear =     5 [       228] cuts =  0 [   4]
  --> max chng: dpl=   1.4630E+04 dpg=   1.4636E+04 dpa=   1.4637E+04
                dxa=   4.4327E-06  dt=   2.5400E-02 dsg=   1.3476E-02
                dsh=   1.0428E-04 dsl=   6.8981E-03 dsi=   0.0000E+00
 Dt limited by Unknown: Val=-9.990E+02, Gov=-9.990E+02, Scale=0.33


== GAS HYDRATE + MULTIPHASE FLOW ===============================================
 Step     66 Time=  9.97978E+04 Dt=  5.94067E+01 [y] snes_conv_reason:  999
  newton =   3 [     230] linear =     3 [       231] cuts =  0 [   4]
  --> max chng: dpl=   4.6058E+03 dpg=   4.6080E+03 dpa=   4.6083E+03
                dxa=   1.3468E-06  dt=   8.3846E-03 dsg=   2.3661E-05
                dsh=   2.4157E-03 dsl=   2.4920E-03 dsi=   0.0000E+00

== GAS HYDRATE + MULTIPHASE FLOW ===============================================
 Step     67 Time=  9.99166E+04 Dt=  1.18813E+02 [y] snes_conv_reason:  999
  newton =   2 [     232] linear =     2 [       233] cuts =  0 [   4]
  --> max chng: dpl=   1.1089E+04 dpg=   1.1089E+04 dpa=   1.1089E+04
                dxa=   3.6857E-06  dt=   8.3681E-03 dsg=   1.0070E-04
                dsh=   7.8899E-05 dsl=   1.0070E-04 dsi=   0.0000E+00

== GAS HYDRATE + MULTIPHASE FLOW ===============================================
 Step     68 Time=  1.00154E+05 Dt=  2.37627E+02 [y] snes_conv_reason:  999
  newton =   4 [     236] linear =     4 [       237] cuts =  0 [   4]
  --> max chng: dpl=   1.1111E+04 dpg=   1.1142E+04 dpa=   1.1143E+04
                dxa=   4.8267E-06  dt=   1.1564E-02 dsg=   7.5408E-03
                dsh=   1.6336E-04 dsl=   3.8460E-03 dsi=   0.0000E+00

== GAS HYDRATE + MULTIPHASE FLOW ===============================================
 Step     69 Time=  1.00630E+05 Dt=  4.75254E+02 [y] snes_conv_reason:  999
  newton =   3 [     239] linear =     3 [       240] cuts =  0 [   4]
  --> max chng: dpl=   1.0855E+04 dpg=   1.0950E+04 dpa=   1.0952E+04
                dxa=   9.6091E-06  dt=   1.7155E-02 dsg=   2.3754E-04
                dsh=   5.4041E-03 dsl=   5.1946E-03 dsi=   0.0000E+00

== GAS HYDRATE + MULTIPHASE FLOW ===============================================
 Step     70 Time=  1.01580E+05 Dt=  9.50507E+02 [y] snes_conv_reason:  999
  newton =   3 [     242] linear =     3 [       243] cuts =  0 [   4]
  --> max chng: dpl=   1.1008E+04 dpg=   1.1196E+04 dpa=   1.1200E+04
                dxa=   1.9088E-05  dt=   3.3266E-02 dsg=   5.3671E-04
                dsh=   5.4375E-04 dsl=   5.4375E-04 dsi=   0.0000E+00

== GAS HYDRATE + MULTIPHASE FLOW ===============================================
 Step     71 Time=  1.03481E+05 Dt=  1.90101E+03 [y] snes_conv_reason:  999
  newton =   6 [     248] linear =     6 [       249] cuts =  0 [   4]
  --> max chng: dpl=   2.4631E+04 dpg=   2.4463E+04 dpa=   2.4460E+04
                dxa=   3.7724E-05  dt=   6.0607E-02 dsg=   1.5344E-02
                dsh=   9.4726E-04 dsl=   6.9529E-03 dsi=   0.0000E+00
 Dt limited by Unknown: Val=-9.990E+02, Gov=-9.990E+02, Scale=0.33


== GAS HYDRATE + MULTIPHASE FLOW ===============================================
 Step     72 Time=  1.03638E+05 Dt=  1.56834E+02 [y] snes_conv_reason:  999
  newton =  20 [     268] linear =    20 [       269] cuts =  2 [   6]
  --> max chng: dpl=   1.1724E+05 dpg=   1.0649E+05 dpa=   1.0650E+05
                dxa=   1.4605E-05  dt=   1.1746E-01 dsg=   3.3028E-04
                dsh=   1.7547E-03 dsl=   1.0096E-02 dsi=   0.0000E+00

== GAS HYDRATE + MULTIPHASE FLOW ===============================================
 Step     73 Time=  1.03795E+05 Dt=  1.56834E+02 [y] snes_conv_reason:  999
  newton =   5 [     273] linear =     5 [       274] cuts =  0 [   6]
  --> max chng: dpl=   3.0563E+04 dpg=   3.0537E+04 dpa=   3.0537E+04
                dxa=   8.8684E-06  dt=   3.4572E-02 dsg=   2.2534E-04
                dsh=   8.9801E-05 dsl=   9.7483E-03 dsi=   0.0000E+00

== GAS HYDRATE + MULTIPHASE FLOW ===============================================
 Step     74 Time=  1.03952E+05 Dt=  1.56834E+02 [y] snes_conv_reason:  999
  newton =   5 [     278] linear =     5 [       279] cuts =  0 [   6]
  --> max chng: dpl=   2.5420E+04 dpg=   2.5402E+04 dpa=   2.5402E+04
                dxa=   7.0369E-06  dt=   3.5279E-02 dsg=   1.7077E-04
                dsh=   8.7874E-05 dsl=   9.5876E-03 dsi=   0.0000E+00

== GAS HYDRATE + MULTIPHASE FLOW ===============================================
 Step     75 Time=  1.04108E+05 Dt=  1.56834E+02 [y] snes_conv_reason:  999
  newton =   6 [     284] linear =     6 [       285] cuts =  0 [   6]
  --> max chng: dpl=   2.2116E+04 dpg=   2.2104E+04 dpa=   2.2105E+04
                dxa=   6.4295E-06  dt=   3.5412E-02 dsg=   1.6959E-02
                dsh=   8.5867E-05 dsl=   8.5486E-03 dsi=   0.0000E+00

== GAS HYDRATE + MULTIPHASE FLOW ===============================================
 Step     76 Time=  1.04265E+05 Dt=  1.56834E+02 [y] snes_conv_reason:  999
  newton =   5 [     289] linear =     5 [       290] cuts =  0 [   6]
  --> max chng: dpl=   2.2079E+04 dpg=   2.2063E+04 dpa=   2.2063E+04
                dxa=   7.0211E-06  dt=   3.5468E-02 dsg=   9.2080E-03
                dsh=   1.0169E-03 dsl=   4.6889E-03 dsi=   0.0000E+00

== GAS HYDRATE + MULTIPHASE FLOW ===============================================
 Step     77 Time=  1.04422E+05 Dt=  1.56834E+02 [y] snes_conv_reason:  999
  newton =   4 [     293] linear =     4 [       294] cuts =  0 [   6]
  --> max chng: dpl=   2.1206E+04 dpg=   2.1197E+04 dpa=   2.1197E+04
                dxa=   6.5762E-06  dt=   3.5498E-02 dsg=   2.0583E-04
                dsh=   4.8059E-03 dsl=   4.6911E-03 dsi=   0.0000E+00

== GAS HYDRATE + MULTIPHASE FLOW ===============================================
 Step     78 Time=  1.04736E+05 Dt=  3.13667E+02 [y] snes_conv_reason:  999
  newton =   5 [     298] linear =     5 [       299] cuts =  0 [   6]
  --> max chng: dpl=   3.0194E+04 dpg=   3.0198E+04 dpa=   3.0200E+04
                dxa=   8.5135E-06  dt=   3.6774E-02 dsg=   2.5462E-04
                dsh=   1.6762E-04 dsl=   9.0358E-03 dsi=   0.0000E+00
 Dt limited by Unknown: Val=-9.990E+02, Gov=-9.990E+02, Scale=0.33


== GAS HYDRATE + MULTIPHASE FLOW ===============================================
 Step     79 Time=  1.04839E+05 Dt=  1.03510E+02 [y] snes_conv_reason:  999
  newton =   4 [     302] linear =     4 [       303] cuts =  0 [   6]
  --> max chng: dpl=   3.6130E+04 dpg=   3.2897E+04 dpa=   3.2895E+04
                dxa=   4.9548E-06  dt=   7.0431E-02 dsg=   1.4626E-02
                dsh=   8.4682E-05 dsl=   7.2870E-03 dsi=   0.0000E+00

== GAS HYDRATE + MULTIPHASE FLOW ===============================================
 Step     80 Time=  1.05046E+05 Dt=  2.07020E+02 [y] snes_conv_reason:  999
  newton =   5 [     307] linear =     5 [       308] cuts =  0 [   6]
  --> max chng: dpl=   2.5941E+04 dpg=   2.5929E+04 dpa=   2.5929E+04
                dxa=   8.0034E-06  dt=   3.6085E-02 dsg=   9.4472E-03
                dsh=   1.8492E-03 dsl=   4.7754E-03 dsi=   0.0000E+00
 Dt limited by Unknown: Val=-9.990E+02, Gov=-9.990E+02, Scale=0.33


== GAS HYDRATE + MULTIPHASE FLOW ===============================================
 Step     81 Time=  1.05115E+05 Dt=  6.83168E+01 [y] snes_conv_reason:  999
  newton =   3 [     310] linear =     3 [       311] cuts =  0 [   6]
  --> max chng: dpl=   2.3123E+04 dpg=   2.1063E+04 dpa=   2.1062E+04
                dxa=   3.2137E-06  dt=   4.6408E-02 dsg=   7.5628E-05
                dsh=   4.3751E-03 dsl=   4.2772E-03 dsi=   0.0000E+00

== GAS HYDRATE + MULTIPHASE FLOW ===============================================
 Step     82 Time=  1.05251E+05 Dt=  1.36634E+02 [y] snes_conv_reason:  999
  newton =   4 [     314] linear =     4 [       315] cuts =  0 [   6]
  --> max chng: dpl=   1.9403E+04 dpg=   1.9403E+04 dpa=   1.9403E+04
                dxa=   6.0496E-06  dt=   2.7054E-02 dsg=   6.1464E-03
                dsh=   8.9178E-05 dsl=   3.1154E-03 dsi=   0.0000E+00

== GAS HYDRATE + MULTIPHASE FLOW ===============================================
 Step     83 Time=  1.05524E+05 Dt=  2.73267E+02 [y] snes_conv_reason:  999
  newton =   4 [     318] linear =     4 [       319] cuts =  0 [   6]
  --> max chng: dpl=   2.6800E+04 dpg=   2.6804E+04 dpa=   2.6805E+04
                dxa=   7.3111E-06  dt=   3.7885E-02 dsg=   2.1660E-04
                dsh=   6.0116E-03 dsl=   5.7037E-03 dsi=   0.0000E+00

== GAS HYDRATE + MULTIPHASE FLOW ===============================================
 Step     84 Time=  1.06071E+05 Dt=  5.46534E+02 [y] snes_conv_reason:  999
  newton =   4 [     322] linear =     4 [       323] cuts =  0 [   6]
  --> max chng: dpl=   3.6884E+04 dpg=   3.6925E+04 dpa=   3.6926E+04
                dxa=   1.1334E-05  dt=   6.2523E-02 dsg=   1.7416E-04
                dsh=   2.5633E-04 dsl=   8.5478E-03 dsi=   0.0000E+00

== GAS HYDRATE + MULTIPHASE FLOW ===============================================
 Step     85 Time=  1.07164E+05 Dt=  1.09307E+03 [y] snes_conv_reason:  999
  newton =   4 [     326] linear =     4 [       327] cuts =  0 [   6]
  --> max chng: dpl=   6.2121E+04 dpg=   6.2223E+04 dpa=   6.2225E+04
                dxa=   2.2399E-05  dt=   1.2410E-01 dsg=   4.4151E-03
                dsh=   4.7508E-04 dsl=   2.1145E-03 dsi=   0.0000E+00

== GAS HYDRATE + MULTIPHASE FLOW ===============================================
 Step     86 Time=  1.09350E+05 Dt=  2.18614E+03 [y] snes_conv_reason:  999
  newton =   4 [     330] linear =     4 [       331] cuts =  0 [   6]
  --> max chng: dpl=   1.2215E+05 dpg=   1.2242E+05 dpa=   1.2242E+05
                dxa=   4.5671E-05  dt=   2.2330E-01 dsg=   6.7108E-04
                dsh=   7.6572E-03 dsl=   5.3867E-03 dsi=   0.0000E+00

== GAS HYDRATE + MULTIPHASE FLOW ===============================================
 Step     87 Time=  1.09418E+05 Dt=  6.83168E+01 [y] snes_conv_reason:  999
  newton =  50 [     380] linear =    51 [       382] cuts =  6 [  12]
  --> max chng: dpl=   3.1962E+05 dpg=   2.8061E+05 dpa=   2.8062E+05
                dxa=   2.4772E-05  dt=   3.2425E-01 dsg=   1.9356E-03
                dsh=   2.2571E-04 dsl=   8.7975E-03 dsi=   0.0000E+00

== GAS HYDRATE + MULTIPHASE FLOW ===============================================
 Step     88 Time=  1.09487E+05 Dt=  6.83168E+01 [y] snes_conv_reason:  999
  newton =   7 [     387] linear =     7 [       389] cuts =  0 [  12]
  --> max chng: dpl=   4.8582E+04 dpg=   4.8494E+04 dpa=   4.8493E+04
                dxa=   1.3912E-05  dt=   5.5796E-02 dsg=   1.6458E-02
                dsh=   8.4065E-03 dsl=   7.9227E-03 dsi=   0.0000E+00

== GAS HYDRATE + MULTIPHASE FLOW ===============================================
 Step     89 Time=  1.09555E+05 Dt=  6.83168E+01 [y] snes_conv_reason:  999
  newton =   4 [     391] linear =     4 [       393] cuts =  0 [  12]
  --> max chng: dpl=   4.6838E+04 dpg=   4.6768E+04 dpa=   4.6768E+04
                dxa=   1.3916E-05  dt=   2.8709E-02 dsg=   2.9984E-04
                dsh=   5.0948E-04 dsl=   8.1377E-03 dsi=   0.0000E+00

== GAS HYDRATE + MULTIPHASE FLOW ===============================================
 Step     90 Time=  1.09623E+05 Dt=  6.83168E+01 [y] snes_conv_reason:  999
  newton =   4 [     395] linear =     4 [       397] cuts =  0 [  12]
  --> max chng: dpl=   4.1049E+04 dpg=   4.0988E+04 dpa=   4.0988E+04
                dxa=   1.0712E-05  dt=   1.8173E-02 dsg=   2.2420E-04
                dsh=   2.4928E-05 dsl=   7.8913E-03 dsi=   0.0000E+00

== GAS HYDRATE + MULTIPHASE FLOW ===============================================
 Step     91 Time=  1.09692E+05 Dt=  6.83168E+01 [y] snes_conv_reason:  999
  newton =   5 [     400] linear =     5 [       402] cuts =  0 [  12]
  --> max chng: dpl=   3.4392E+04 dpg=   3.4340E+04 dpa=   3.4340E+04
                dxa=   8.8466E-06  dt=   1.2520E-02 dsg=   1.8063E-04
                dsh=   2.4547E-05 dsl=   7.7345E-03 dsi=   0.0000E+00

== GAS HYDRATE + MULTIPHASE FLOW ===============================================
 Step     92 Time=  1.09760E+05 Dt=  6.83168E+01 [y] snes_conv_reason:  999
  newton =   5 [     405] linear =     5 [       407] cuts =  0 [  12]
  --> max chng: dpl=   2.8661E+04 dpg=   2.8623E+04 dpa=   2.8622E+04
                dxa=   7.3565E-06  dt=   8.9625E-03 dsg=   1.3413E-04
                dsh=   2.6840E-05 dsl=   7.6174E-03 dsi=   0.0000E+00
 Dt limited by Unknown: Val=-9.990E+02, Gov=-9.990E+02, Scale=0.33


== GAS HYDRATE + MULTIPHASE FLOW ===============================================
 Step     93 Time=  1.09783E+05 Dt=  2.25445E+01 [y] snes_conv_reason:  999
  newton =   3 [     408] linear =     3 [       410] cuts =  0 [  12]
  --> max chng: dpl=   1.6262E+04 dpg=   1.6262E+04 dpa=   1.6263E+04
                dxa=   5.2459E-06  dt=   7.9596E-03 dsg=   1.5006E-04
                dsh=   1.2782E-05 dsl=   1.3038E-04 dsi=   0.0000E+00

== GAS HYDRATE + MULTIPHASE FLOW ===============================================
 Step     94 Time=  1.09828E+05 Dt=  4.50891E+01 [y] snes_conv_reason:  999
  newton =   3 [     411] linear =     3 [       413] cuts =  0 [  12]
  --> max chng: dpl=   1.7500E+04 dpg=   1.7477E+04 dpa=   1.7477E+04
                dxa=   4.4131E-06  dt=   4.1993E-03 dsg=   9.7021E-03
                dsh=   5.1766E-03 dsl=   4.5254E-03 dsi=   0.0000E+00

== GAS HYDRATE + MULTIPHASE FLOW ===============================================
 Step     95 Time=  1.09918E+05 Dt=  9.01781E+01 [y] snes_conv_reason:  999
  newton =   5 [     416] linear =     5 [       418] cuts =  0 [  12]
  --> max chng: dpl=   2.9230E+04 dpg=   2.9194E+04 dpa=   2.9194E+04
                dxa=   8.0815E-06  dt=   5.4546E-03 dsg=   3.3424E-03
                dsh=   3.3556E-03 dsl=   2.8656E-03 dsi=   0.0000E+00
 Dt limited by Unknown: Val=-9.990E+02, Gov=-9.990E+02, Scale=0.33


== GAS HYDRATE + MULTIPHASE FLOW ===============================================
 Step     96 Time=  1.09948E+05 Dt=  2.97588E+01 [y] snes_conv_reason:  999
  newton =   3 [     419] linear =     3 [       421] cuts =  0 [  12]
  --> max chng: dpl=   1.0182E+04 dpg=   9.4476E+03 dpa=   9.4475E+03
                dxa=   2.1547E-06  dt=   1.0533E-02 dsg=   5.9593E-03
                dsh=   3.1915E-03 dsl=   2.7678E-03 dsi=   0.0000E+00

== GAS HYDRATE + MULTIPHASE FLOW ===============================================
 Step     97 Time=  1.10007E+05 Dt=  5.95176E+01 [y] snes_conv_reason:  999
  newton =   3 [     422] linear =     3 [       424] cuts =  0 [  12]
  --> max chng: dpl=   1.5971E+04 dpg=   1.5954E+04 dpa=   1.5954E+04
                dxa=   4.8043E-06  dt=   4.6373E-03 dsg=   1.1081E-04
                dsh=   3.5404E-03 dsl=   3.0272E-03 dsi=   0.0000E+00

== GAS HYDRATE + MULTIPHASE FLOW ===============================================
 Step     98 Time=  1.10126E+05 Dt=  1.19035E+02 [y] snes_conv_reason:  999
  newton =   4 [     426] linear =     4 [       428] cuts =  0 [  12]
  --> max chng: dpl=   2.3809E+04 dpg=   2.3791E+04 dpa=   2.3791E+04
                dxa=   6.1478E-06  dt=   7.1010E-03 dsg=   1.4274E-02
                dsh=   5.9361E-05 dsl=   6.6175E-03 dsi=   0.0000E+00

== GAS HYDRATE + MULTIPHASE FLOW ===============================================
 Step     99 Time=  1.10364E+05 Dt=  2.38070E+02 [y] snes_conv_reason:  999
  newton =   5 [     431] linear =     5 [       433] cuts =  0 [  12]
  --> max chng: dpl=   3.2903E+04 dpg=   3.2889E+04 dpa=   3.2889E+04
                dxa=   9.0409E-06  dt=   1.4182E-02 dsg=   1.3128E-02
                dsh=   7.4503E-04 dsl=   6.1023E-03 dsi=   0.0000E+00
 Dt limited by Unknown: Val=-9.990E+02, Gov=-9.990E+02, Scale=0.33


== GAS HYDRATE + MULTIPHASE FLOW ===============================================
 Step    100 Time=  1.10443E+05 Dt=  7.85632E+01 [y] snes_conv_reason:  999
  newton =   4 [     435] linear =     4 [       437] cuts =  0 [  12]
  --> max chng: dpl=   2.0920E+04 dpg=   2.0128E+04 dpa=   2.0128E+04
                dxa=   5.0409E-06  dt=   4.3385E-02 dsg=   1.2337E-04
                dsh=   1.2303E-03 dsl=   1.0035E-03 dsi=   0.0000E+00

== GAS HYDRATE + MULTIPHASE FLOW ===============================================
 Step    101 Time=  1.10600E+05 Dt=  1.57126E+02 [y] snes_conv_reason:  999
  newton =   4 [     439] linear =     4 [       441] cuts =  0 [  12]
  --> max chng: dpl=   1.8448E+04 dpg=   1.8445E+04 dpa=   1.8444E+04
                dxa=   4.7118E-06  dt=   5.1448E-02 dsg=   1.0747E-02
                dsh=   7.7609E-05 dsl=   4.9467E-03 dsi=   0.0000E+00

== GAS HYDRATE + MULTIPHASE FLOW ===============================================
 Step    102 Time=  1.10914E+05 Dt=  3.14253E+02 [y] snes_conv_reason:  999
  newton =   4 [     443] linear =     4 [       445] cuts =  0 [  12]
  --> max chng: dpl=   2.7678E+04 dpg=   2.7688E+04 dpa=   2.7688E+04
                dxa=   7.9434E-06  dt=   1.0284E-01 dsg=   2.4227E-04
                dsh=   2.4611E-03 dsl=   1.8190E-03 dsi=   0.0000E+00

== GAS HYDRATE + MULTIPHASE FLOW ===============================================
 Step    103 Time=  1.11543E+05 Dt=  6.28505E+02 [y] snes_conv_reason:  999
  newton =   4 [     447] linear =     4 [       449] cuts =  0 [  12]
  --> max chng: dpl=   3.4162E+04 dpg=   3.4219E+04 dpa=   3.4219E+04
                dxa=   1.5045E-05  dt=   2.0585E-01 dsg=   1.7194E-04
                dsh=   3.2160E-04 dsl=   6.5654E-03 dsi=   0.0000E+00

== GAS HYDRATE + MULTIPHASE FLOW ===============================================
 Step    104 Time=  1.12800E+05 Dt=  1.25701E+03 [y] snes_conv_reason:  999
  newton =   6 [     453] linear =     6 [       455] cuts =  0 [  12]
  --> max chng: dpl=   5.3715E+04 dpg=   6.0314E+04 dpa=   6.0306E+04
                dxa=   3.1908E-05  dt=   4.1201E-01 dsg=   4.5859E-04
                dsh=   2.2033E-03 dsl=   7.1633E-03 dsi=   0.0000E+00
 Dt limited by Unknown: Val=-9.990E+02, Gov=-9.990E+02, Scale=0.33


== GAS HYDRATE + MULTIPHASE FLOW ===============================================
 Step    105 Time=  1.13215E+05 Dt=  4.14814E+02 [y] snes_conv_reason:  999
  newton =   3 [     456] linear =     3 [       458] cuts =  0 [  12]
  --> max chng: dpl=   5.4824E+04 dpg=   5.2720E+04 dpa=   5.2699E+04
                dxa=   3.3363E-05  dt=   6.0936E-01 dsg=   4.3456E-04
                dsh=   6.0111E-04 dsl=   6.0111E-04 dsi=   0.0000E+00

== GAS HYDRATE + MULTIPHASE FLOW ===============================================
 Step    106 Time=  1.14044E+05 Dt=  8.29627E+02 [y] snes_conv_reason:  999
  newton =   5 [     461] linear =     5 [       463] cuts =  0 [  12]
  --> max chng: dpl=   3.3573E+04 dpg=   3.7793E+04 dpa=   3.7782E+04
                dxa=   2.8014E-05  dt=   2.8539E-01 dsg=   1.1572E-02
                dsh=   6.5624E-04 dsl=   7.5453E-03 dsi=   0.0000E+00
 Dt limited by Unknown: Val=-9.990E+02, Gov=-9.990E+02, Scale=0.33


== GAS HYDRATE + MULTIPHASE FLOW ===============================================
 Step    107 Time=  1.14318E+05 Dt=  2.73777E+02 [y] snes_conv_reason:  999
  newton =   5 [     466] linear =     5 [       468] cuts =  0 [  12]
  --> max chng: dpl=   1.8327E+04 dpg=   2.4618E+04 dpa=   2.4614E+04
                dxa=   9.2579E-06  dt=   7.6683E-02 dsg=   1.5484E-04
                dsh=   2.4096E-04 dsl=   7.6023E-03 dsi=   0.0000E+00
 Dt limited by Unknown: Val=-9.990E+02, Gov=-9.990E+02, Scale=0.33


== GAS HYDRATE + MULTIPHASE FLOW ===============================================
 Step    108 Time=  1.14408E+05 Dt=  9.03464E+01 [y] snes_conv_reason:  999
  newton =   4 [     470] linear =     4 [       472] cuts =  0 [  12]
  --> max chng: dpl=   1.1010E+04 dpg=   1.0245E+04 dpa=   1.0245E+04
                dxa=   3.2091E-06  dt=   9.0482E-02 dsg=   4.5238E-05
                dsh=   2.2065E-03 dsl=   1.7659E-03 dsi=   0.0000E+00

== GAS HYDRATE + MULTIPHASE FLOW ===============================================
 Step    109 Time=  1.14589E+05 Dt=  1.80693E+02 [y] snes_conv_reason:  999
  newton =   4 [     474] linear =     4 [       476] cuts =  0 [  12]
  --> max chng: dpl=   1.0765E+04 dpg=   1.6043E+04 dpa=   1.6040E+04
                dxa=   5.0927E-06  dt=   3.5719E-02 dsg=   1.3377E-02
                dsh=   6.5989E-05 dsl=   5.9918E-03 dsi=   0.0000E+00

== GAS HYDRATE + MULTIPHASE FLOW ===============================================
 Step    110 Time=  1.14950E+05 Dt=  3.61386E+02 [y] snes_conv_reason:  999
  newton =   6 [     480] linear =     6 [       482] cuts =  0 [  12]
  --> max chng: dpl=   1.2648E+04 dpg=   1.9393E+04 dpa=   1.9388E+04
                dxa=   9.0220E-06  dt=   6.0449E-02 dsg=   2.6789E-04
                dsh=   3.5675E-03 dsl=   8.0928E-03 dsi=   0.0000E+00
 Dt limited by Unknown: Val=-9.990E+02, Gov=-9.990E+02, Scale=0.33


== GAS HYDRATE + MULTIPHASE FLOW ===============================================
 Step    111 Time=  1.15070E+05 Dt=  1.19257E+02 [y] snes_conv_reason:  999
  newton =   3 [     483] linear =     3 [       485] cuts =  0 [  12]
  --> max chng: dpl=   1.4535E+04 dpg=   1.5216E+04 dpa=   1.5214E+04
                dxa=   7.8951E-06  dt=   3.2050E-01 dsg=   1.1020E-02
                dsh=   6.1015E-03 dsl=   4.9182E-03 dsi=   0.0000E+00

== GAS HYDRATE + MULTIPHASE FLOW ===============================================
 Step    112 Time=  1.15308E+05 Dt=  2.38514E+02 [y] snes_conv_reason:  999
  newton =   5 [     488] linear =     5 [       490] cuts =  0 [  12]
  --> max chng: dpl=   9.6225E+03 dpg=   1.4994E+04 dpa=   1.4991E+04
                dxa=   1.2602E-05  dt=   1.6690E-01 dsg=   8.5232E-04
                dsh=   8.5645E-03 dsl=   6.8816E-03 dsi=   0.0000E+00
 Dt limited by Unknown: Val=-9.990E+02, Gov=-9.990E+02, Scale=0.33


== GAS HYDRATE + MULTIPHASE FLOW ===============================================
 Step    113 Time=  1.15387E+05 Dt=  7.87098E+01 [y] snes_conv_reason:  999
  newton =   3 [     491] linear =     3 [       493] cuts =  0 [  12]
  --> max chng: dpl=   7.4840E+03 dpg=   6.6523E+03 dpa=   6.6467E+03
                dxa=   8.0942E-06  dt=   2.9323E-01 dsg=   3.3305E-03
                dsh=   1.4002E-04 dsl=   1.4987E-03 dsi=   0.0000E+00

== GAS HYDRATE + MULTIPHASE FLOW ===============================================
 Step    114 Time=  1.15544E+05 Dt=  1.57420E+02 [y] snes_conv_reason:  999
  newton =   4 [     495] linear =     4 [       497] cuts =  0 [  12]
  --> max chng: dpl=   6.5704E+03 dpg=   1.2392E+04 dpa=   1.2390E+04
                dxa=   1.1028E-05  dt=   1.2276E-01 dsg=   1.1950E-04
                dsh=   6.1863E-03 dsl=   4.9781E-03 dsi=   0.0000E+00

== GAS HYDRATE + MULTIPHASE FLOW ===============================================
 Step    115 Time=  1.15859E+05 Dt=  3.14839E+02 [y] snes_conv_reason:  999
  newton =   5 [     500] linear =     5 [       502] cuts =  0 [  12]
  --> max chng: dpl=   1.0301E+04 dpg=   1.8581E+04 dpa=   1.8576E+04
                dxa=   1.2790E-05  dt=   1.2319E-01 dsg=   8.3896E-03
                dsh=   3.2075E-04 dsl=   8.8892E-03 dsi=   0.0000E+00
 Dt limited by Unknown: Val=-9.990E+02, Gov=-9.990E+02, Scale=0.33


== GAS HYDRATE + MULTIPHASE FLOW ===============================================
 Step    116 Time=  1.15963E+05 Dt=  1.03897E+02 [y] snes_conv_reason:  999
  newton =   4 [     504] linear =     4 [       506] cuts =  0 [  12]
  --> max chng: dpl=   9.8840E+03 dpg=   1.2069E+04 dpa=   1.2068E+04
                dxa=   4.3668E-06  dt=   3.4388E-02 dsg=   6.8339E-05
                dsh=   5.5104E-03 dsl=   4.4421E-03 dsi=   0.0000E+00

== GAS HYDRATE + MULTIPHASE FLOW ===============================================
 Step    117 Time=  1.16171E+05 Dt=  2.07794E+02 [y] snes_conv_reason:  999
  newton =   6 [     510] linear =     6 [       512] cuts =  0 [  12]
  --> max chng: dpl=   9.1737E+03 dpg=   1.5138E+04 dpa=   1.5134E+04
                dxa=   6.9338E-06  dt=   5.6243E-02 dsg=   1.0412E-02
                dsh=   7.3357E-03 dsl=   5.8810E-03 dsi=   0.0000E+00
 Dt limited by Unknown: Val=-9.990E+02, Gov=-9.990E+02, Scale=0.33


== GAS HYDRATE + MULTIPHASE FLOW ===============================================
 Step    118 Time=  1.16239E+05 Dt=  6.85720E+01 [y] snes_conv_reason:  999
  newton =   3 [     513] linear =     3 [       515] cuts =  0 [  12]
  --> max chng: dpl=   3.2523E+03 dpg=   5.3257E+03 dpa=   5.3245E+03
                dxa=   2.2960E-06  dt=   1.7431E-02 dsg=   7.4459E-03
                dsh=   4.2358E-05 dsl=   3.3371E-03 dsi=   0.0000E+00

== GAS HYDRATE + MULTIPHASE FLOW ===============================================
 Step    119 Time=  1.16377E+05 Dt=  1.37144E+02 [y] snes_conv_reason:  999
  newton =   4 [     517] linear =     4 [       519] cuts =  0 [  12]
  --> max chng: dpl=   5.3880E+03 dpg=   1.3630E+04 dpa=   1.3627E+04
                dxa=   4.9467E-06  dt=   3.1567E-02 dsg=   1.0983E-04
                dsh=   1.0085E-02 dsl=   8.1217E-03 dsi=   0.0000E+00

== GAS HYDRATE + MULTIPHASE FLOW ===============================================
 Step    120 Time=  1.16651E+05 Dt=  2.74288E+02 [y] snes_conv_reason:  999
  newton =   6 [     523] linear =     6 [       525] cuts =  0 [  12]
  --> max chng: dpl=   4.5411E+03 dpg=   1.2321E+04 dpa=   1.2317E+04
                dxa=   7.9935E-06  dt=   5.4146E-02 dsg=   3.1032E-03
                dsh=   3.1004E-03 dsl=   9.6866E-03 dsi=   0.0000E+00
 Dt limited by Unknown: Val=-9.990E+02, Gov=-9.990E+02, Scale=0.33


== GAS HYDRATE + MULTIPHASE FLOW ===============================================
 Step    121 Time=  1.16741E+05 Dt=  9.05150E+01 [y] snes_conv_reason:  999
  newton =   3 [     526] linear =     3 [       528] cuts =  0 [  12]
  --> max chng: dpl=   6.3521E+03 dpg=   1.2609E+04 dpa=   1.2607E+04
                dxa=   2.9370E-06  dt=   1.6751E-02 dsg=   1.6091E-02
                dsh=   3.8432E-05 dsl=   7.1989E-03 dsi=   0.0000E+00

== GAS HYDRATE + MULTIPHASE FLOW ===============================================
 Step    122 Time=  1.16922E+05 Dt=  1.81030E+02 [y] snes_conv_reason:  999
  newton =   5 [     531] linear =     5 [       533] cuts =  0 [  12]
  --> max chng: dpl=   3.0140E+03 dpg=   1.0227E+04 dpa=   1.0224E+04
                dxa=   4.6017E-06  dt=   3.1039E-02 dsg=   1.7520E-04
                dsh=   6.7053E-05 dsl=   9.8798E-03 dsi=   0.0000E+00
 Dt limited by Unknown: Val=-9.990E+02, Gov=-9.990E+02, Scale=0.33


== GAS HYDRATE + MULTIPHASE FLOW ===============================================
 Step    123 Time=  1.16982E+05 Dt=  5.97399E+01 [y] snes_conv_reason:  999
  newton =   4 [     535] linear =     4 [       537] cuts =  0 [  12]
  --> max chng: dpl=   2.2104E+03 dpg=   1.5488E+03 dpa=   1.5487E+03
                dxa=   2.1269E-06  dt=   1.1459E-02 dsg=   6.7476E-05
                dsh=   2.3581E-03 dsl=   1.9048E-03 dsi=   0.0000E+00

== GAS HYDRATE + MULTIPHASE FLOW ===============================================
 Step    124 Time=  1.17102E+05 Dt=  1.19480E+02 [y] snes_conv_reason:  999
  newton =   3 [     538] linear =     3 [       540] cuts =  0 [  12]
  --> max chng: dpl=   5.1512E+03 dpg=   1.2272E+04 dpa=   1.2270E+04
                dxa=   3.0508E-06  dt=   1.8798E-02 dsg=   1.8057E-02
                dsh=   4.2179E-05 dsl=   8.0931E-03 dsi=   0.0000E+00

== GAS HYDRATE + MULTIPHASE FLOW ===============================================
 Step    125 Time=  1.17341E+05 Dt=  2.38960E+02 [y] snes_conv_reason:  999
  newton =   6 [     544] linear =     6 [       546] cuts =  0 [  12]
  --> max chng: dpl=   9.4642E+02 dpg=   8.8886E+03 dpa=   8.8848E+03
                dxa=   5.8417E-06  dt=   3.6391E-02 dsg=   2.3451E-04
                dsh=   1.7858E-03 dsl=   1.0201E-02 dsi=   0.0000E+00
 Dt limited by Unknown: Val=-9.990E+02, Gov=-9.990E+02, Scale=0.33


== GAS HYDRATE + MULTIPHASE FLOW ===============================================
 Step    126 Time=  1.17419E+05 Dt=  7.88567E+01 [y] snes_conv_reason:  999
  newton =   3 [     547] linear =     3 [       549] cuts =  0 [  12]
  --> max chng: dpl=   3.2673E+03 dpg=   9.3035E+03 dpa=   9.3026E+03
                dxa=   2.1785E-06  dt=   1.0735E-02 dsg=   1.3415E-02
                dsh=   7.3918E-03 dsl=   6.0234E-03 dsi=   0.0000E+00

== GAS HYDRATE + MULTIPHASE FLOW ===============================================
 Step    127 Time=  1.17577E+05 Dt=  1.57713E+02 [y] snes_conv_reason:  999
  newton =   5 [     552] linear =     5 [       554] cuts =  0 [  12]
  --> max chng: dpl=   1.2771E+03 dpg=   5.6477E+03 dpa=   5.6454E+03
                dxa=   4.1372E-06  dt=   2.2312E-02 dsg=   6.2064E-03
                dsh=   7.5780E-03 dsl=   6.1437E-03 dsi=   0.0000E+00
 Dt limited by Unknown: Val=-9.990E+02, Gov=-9.990E+02, Scale=0.33


== GAS HYDRATE + MULTIPHASE FLOW ===============================================
 Step    128 Time=  1.17629E+05 Dt=  5.20454E+01 [y] snes_conv_reason:  999
  newton =   3 [     555] linear =     3 [       557] cuts =  0 [  12]
  --> max chng: dpl=   2.2164E+03 dpg=   5.0978E+03 dpa=   5.0973E+03
                dxa=   1.1625E-06  dt=   6.4668E-03 dsg=   9.2521E-03
                dsh=   1.4551E-05 dsl=   4.1538E-03 dsi=   0.0000E+00

== GAS HYDRATE + MULTIPHASE FLOW ===============================================
 Step    129 Time=  1.17733E+05 Dt=  1.04091E+02 [y] snes_conv_reason:  999
  newton =   4 [     559] linear =     4 [       561] cuts =  0 [  12]
  --> max chng: dpl=   3.8760E+03 dpg=   3.8563E+03 dpa=   3.8579E+03
                dxa=   2.7960E-06  dt=   1.6155E-02 dsg=   1.1968E-04
                dsh=   5.3468E-03 dsl=   4.3526E-03 dsi=   0.0000E+00

== GAS HYDRATE + MULTIPHASE FLOW ===============================================
 Step    130 Time=  1.17941E+05 Dt=  2.08182E+02 [y] snes_conv_reason:  999
  newton =   6 [     565] linear =     6 [       567] cuts =  0 [  12]
  --> max chng: dpl=   8.1967E+02 dpg=   5.9853E+03 dpa=   5.9827E+03
                dxa=   4.6228E-06  dt=   2.5638E-02 dsg=   1.3626E-02
                dsh=   6.2329E-03 dsl=   6.1887E-03 dsi=   0.0000E+00
 Dt limited by Unknown: Val=-9.990E+02, Gov=-9.990E+02, Scale=0.33


== GAS HYDRATE + MULTIPHASE FLOW ===============================================
 Step    131 Time=  1.18010E+05 Dt=  6.86999E+01 [y] snes_conv_reason:  999
  newton =   3 [     568] linear =     3 [       570] cuts =  0 [  12]
  --> max chng: dpl=   2.4270E+03 dpg=   6.3243E+03 dpa=   6.3237E+03
                dxa=   1.4731E-06  dt=   7.9058E-03 dsg=   1.1800E-02
                dsh=   6.4890E-03 dsl=   5.3113E-03 dsi=   0.0000E+00

== GAS HYDRATE + MULTIPHASE FLOW ===============================================
 Step    132 Time=  1.18148E+05 Dt=  1.37400E+02 [y] snes_conv_reason:  999
  newton =   5 [     573] linear =     5 [       575] cuts =  0 [  12]
  --> max chng: dpl=   3.5551E+03 dpg=   3.5102E+03 dpa=   3.5121E+03
                dxa=   3.2511E-06  dt=   1.8162E-02 dsg=   3.6019E-04
                dsh=   7.2657E-03 dsl=   5.9364E-03 dsi=   0.0000E+00
 Dt limited by Unknown: Val=-9.990E+02, Gov=-9.990E+02, Scale=0.33


== GAS HYDRATE + MULTIPHASE FLOW ===============================================
 Step    133 Time=  1.18193E+05 Dt=  4.53419E+01 [y] snes_conv_reason:  999
  newton =   3 [     576] linear =     3 [       578] cuts =  0 [  12]
  --> max chng: dpl=   4.9869E+03 dpg=   4.6076E+03 dpa=   4.6071E+03
                dxa=   1.0797E-06  dt=   5.2082E-03 dsg=   6.0117E-03
                dsh=   3.3089E-03 dsl=   2.7029E-03 dsi=   0.0000E+00

== GAS HYDRATE + MULTIPHASE FLOW ===============================================
 Step    134 Time=  1.18284E+05 Dt=  9.06839E+01 [y] snes_conv_reason:  999
  newton =   3 [     579] linear =     3 [       581] cuts =  0 [  12]
  --> max chng: dpl=   2.7991E+03 dpg=   2.7850E+03 dpa=   2.7864E+03
                dxa=   1.8345E-06  dt=   1.3096E-02 dsg=   4.4486E-03
                dsh=   2.2121E-05 dsl=   2.0336E-03 dsi=   0.0000E+00

== GAS HYDRATE + MULTIPHASE FLOW ===============================================
 Step    135 Time=  1.18465E+05 Dt=  1.81368E+02 [y] snes_conv_reason:  999
  newton =   5 [     584] linear =     5 [       586] cuts =  0 [  12]
  --> max chng: dpl=   6.8444E+03 dpg=   1.6780E+04 dpa=   1.6778E+04
                dxa=   4.2834E-06  dt=   1.9365E-02 dsg=   1.2538E-04
                dsh=   1.3053E-02 dsl=   1.0689E-02 dsi=   0.0000E+00
 Dt limited by Unknown: Val=-9.990E+02, Gov=-9.990E+02, Scale=0.33


== GAS HYDRATE + MULTIPHASE FLOW ===============================================
 Step    136 Time=  1.18525E+05 Dt=  5.98514E+01 [y] snes_conv_reason:  999
  newton =   3 [     587] linear =     3 [       589] cuts =  0 [  12]
  --> max chng: dpl=   6.5717E+03 dpg=   4.7765E+03 dpa=   4.7765E+03
                dxa=   1.6833E-06  dt=   1.0248E-02 dsg=   8.3436E-05
                dsh=   1.6723E-05 dsl=   7.0224E-05 dsi=   0.0000E+00

== GAS HYDRATE + MULTIPHASE FLOW ===============================================
 Step    137 Time=  1.18644E+05 Dt=  1.19703E+02 [y] snes_conv_reason:  999
  newton =   4 [     591] linear =     4 [       593] cuts =  0 [  12]
  --> max chng: dpl=   4.8281E+03 dpg=   9.9434E+03 dpa=   9.9423E+03
                dxa=   2.9292E-06  dt=   1.2966E-02 dsg=   8.2336E-05
                dsh=   5.2456E-03 dsl=   4.2942E-03 dsi=   0.0000E+00

== GAS HYDRATE + MULTIPHASE FLOW ===============================================
 Step    138 Time=  1.18884E+05 Dt=  2.39405E+02 [y] snes_conv_reason:  999
  newton =   5 [     596] linear =     5 [       598] cuts =  0 [  12]
  --> max chng: dpl=   4.3476E+03 dpg=   8.7204E+03 dpa=   8.7180E+03
                dxa=   4.7835E-06  dt=   2.4259E-02 dsg=   1.4548E-02
                dsh=   5.2610E-04 dsl=   6.5985E-03 dsi=   0.0000E+00
 Dt limited by Unknown: Val=-9.990E+02, Gov=-9.990E+02, Scale=0.33


== GAS HYDRATE + MULTIPHASE FLOW ===============================================
 Step    139 Time=  1.18963E+05 Dt=  7.90038E+01 [y] snes_conv_reason:  999
  newton =   3 [     599] linear =     3 [       601] cuts =  0 [  12]
  --> max chng: dpl=   8.6895E+03 dpg=   7.9094E+03 dpa=   7.9095E+03
                dxa=   1.8009E-06  dt=   8.1341E-03 dsg=   5.5493E-03
                dsh=   3.0452E-03 dsl=   2.5041E-03 dsi=   0.0000E+00

== GAS HYDRATE + MULTIPHASE FLOW ===============================================
 Step    140 Time=  1.19121E+05 Dt=  1.58008E+02 [y] snes_conv_reason:  999
  newton =   4 [     603] linear =     4 [       605] cuts =  0 [  12]
  --> max chng: dpl=   6.9544E+03 dpg=   1.2884E+04 dpa=   1.2882E+04
                dxa=   3.1477E-06  dt=   1.4832E-02 dsg=   1.5733E-02
                dsh=   8.6485E-03 dsl=   7.0846E-03 dsi=   0.0000E+00

== GAS HYDRATE + MULTIPHASE FLOW ===============================================
 Step    141 Time=  1.19437E+05 Dt=  3.16015E+02 [y] snes_conv_reason:  999
  newton =   5 [     608] linear =     5 [       610] cuts =  0 [  12]
  --> max chng: dpl=   5.3879E+03 dpg=   1.2106E+04 dpa=   1.2104E+04
                dxa=   6.2661E-06  dt=   2.7974E-02 dsg=   2.0999E-03
                dsh=   1.0701E-02 dsl=   8.7346E-03 dsi=   0.0000E+00
 Dt limited by Unknown: Val=-9.990E+02, Gov=-9.990E+02, Scale=0.33


== GAS HYDRATE + MULTIPHASE FLOW ===============================================
 Step    142 Time=  1.19541E+05 Dt=  1.04285E+02 [y] snes_conv_reason:  999
  newton =   3 [     611] linear =     3 [       613] cuts =  0 [  12]
  --> max chng: dpl=   2.7239E+03 dpg=   2.3680E+03 dpa=   2.3681E+03
                dxa=   2.0657E-06  dt=   1.0757E-02 dsg=   5.0236E-03
                dsh=   2.3163E-05 dsl=   2.2770E-03 dsi=   0.0000E+00

== GAS HYDRATE + MULTIPHASE FLOW ===============================================
 Step    143 Time=  1.19750E+05 Dt=  2.08570E+02 [y] snes_conv_reason:  999
  newton =   5 [     616] linear =     5 [       618] cuts =  0 [  12]
  --> max chng: dpl=   2.2542E+03 dpg=   8.5174E+03 dpa=   8.5158E+03
                dxa=   4.1208E-06  dt=   1.7573E-02 dsg=   1.6599E-04
                dsh=   6.6968E-03 dsl=   5.4833E-03 dsi=   0.0000E+00
 Dt limited by Unknown: Val=-9.990E+02, Gov=-9.990E+02, Scale=0.33


== GAS HYDRATE + MULTIPHASE FLOW ===============================================
 Step    144 Time=  1.19819E+05 Dt=  6.88281E+01 [y] snes_conv_reason:  999
  newton =   3 [     619] linear =     3 [       621] cuts =  0 [  12]
  --> max chng: dpl=   2.3304E+03 dpg=   4.3901E+03 dpa=   4.3897E+03
                dxa=   1.3587E-06  dt=   7.0879E-03 dsg=   5.6282E-03
                dsh=   3.0932E-03 dsl=   2.5350E-03 dsi=   0.0000E+00

== GAS HYDRATE + MULTIPHASE FLOW ===============================================
 Step    145 Time=  1.19956E+05 Dt=  1.37656E+02 [y] snes_conv_reason:  999
  newton =   3 [     622] linear =     3 [       624] cuts =  0 [  12]
  --> max chng: dpl=   1.1912E+03 dpg=   1.7702E+03 dpa=   1.7691E+03
                dxa=   2.7136E-06  dt=   1.1124E-02 dsg=   6.9613E-03
                dsh=   3.2934E-05 dsl=   3.1611E-03 dsi=   0.0000E+00

== GAS HYDRATE + MULTIPHASE FLOW ===============================================
 Step    146 Time=  1.20000E+05 Dt=  4.37589E+01 [y] snes_conv_reason:  999
  newton =   4 [     626] linear =     4 [       628] cuts =  0 [  12]
  --> max chng: dpl=   1.4460E+03 dpg=   1.4405E+03 dpa=   1.4410E+03
                dxa=   8.7427E-07  dt=   4.6640E-03 dsg=   4.4569E-05
                dsh=   1.1463E-04 dsl=   8.6795E-05 dsi=   0.0000E+00

 Wall Clock Time:  7.6198E+00 [sec]   1.2700E-01 [min]   2.1166E-03 [hr]
